************************************************************************
* auCdl Netlist:
* 
* Library Name:  work
* Top Cell Name: allCells_HS
* View Name:     schematic
* Netlisted on:  Jan 13 11:32:35 2025
************************************************************************

*.BIPOLAR
*.RESI = 2000 
*.RESVAL
*.CAPVAL
*.DIOPERI
*.DIOAREA
*.EQUATION
*.SCALE METER
*.MEGA
.PARAM

*.GLOBAL VSS!
+        VDD!

*.PIN VSS!
*+    VDD!

************************************************************************
* Library Name: sky130_scl_9T_HS
* Cell Name:    OR4X2_HS
* View Name:    schematic
************************************************************************

.SUBCKT OR4X2_HS A B C D Y VDD VSS
*.PININFO A:I B:I C:I D:I VDD:I VSS:I Y:O
Mmp4 Y n0 VDD VDD pfet_01v8 W=2.92u L=150n M=1
Mmp0 n1 A VDD VDD pfet_01v8 W=780n L=150n M=1
Mmp3 n0 D n3 VDD pfet_01v8 W=780n L=150n M=1
Mmp1 n2 B n1 VDD pfet_01v8 W=780n L=150n M=1
Mmp2 n3 C n2 VDD pfet_01v8 W=780n L=150n M=1
Mmn4 Y n0 VSS VSS nfet_01v8_lvt W=1.52u L=150n M=1
Mmn3 n0 D VSS VSS nfet_01v8_lvt W=425n L=150n M=1
Mmn0 n0 A VSS VSS nfet_01v8_lvt W=425n L=150n M=1
Mmn2 n0 C VSS VSS nfet_01v8_lvt W=425n L=150n M=1
Mmn1 n0 B VSS VSS nfet_01v8_lvt W=425n L=150n M=1
.ENDS

************************************************************************
* Library Name: sky130_scl_9T_HS
* Cell Name:    OAI221X2_HS
* View Name:    schematic
************************************************************************

.SUBCKT OAI221X2_HS A0 A1 B0 B1 C0 Y VDD VSS
*.PININFO A0:I A1:I B0:I B1:I C0:I VDD:I VSS:I Y:O
Mmp3 Y B1 net123 VDD pfet_01v8 W=2.92u L=150n M=1
Mmp0 net115 A0 VDD VDD pfet_01v8 W=2.92u L=150n M=1
Mmp1 Y A1 net115 VDD pfet_01v8 W=2.92u L=150n M=1
Mmp2 net123 B0 VDD VDD pfet_01v8 W=2.92u L=150n M=1
Mmp4 Y C0 VDD VDD pfet_01v8 W=2.92u L=150n M=1
Mmn4 Y C0 net132 VSS nfet_01v8_lvt W=1.52u L=150n M=1
Mmn0 net128 A0 VSS VSS nfet_01v8_lvt W=1.52u L=150n M=1
Mmn1 net128 A1 VSS VSS nfet_01v8_lvt W=1.52u L=150n M=1
Mmn2 net132 B0 net128 VSS nfet_01v8_lvt W=1.52u L=150n M=1
Mmn3 net132 B1 net128 VSS nfet_01v8_lvt W=1.52u L=150n M=1
.ENDS

************************************************************************
* Library Name: sky130_scl_9T_HS
* Cell Name:    INVX16_HS
* View Name:    schematic
************************************************************************

.SUBCKT INVX16_HS A Y VDD VSS
*.PININFO A:I VDD:I VSS:I Y:O
Mmp0 Y A VDD VDD pfet_01v8 W=23.36u L=150n M=1
Mmn0 Y A VSS VSS nfet_01v8_lvt W=12.16u L=150n M=1
.ENDS

************************************************************************
* Library Name: sky130_scl_9T_HS
* Cell Name:    INVX2_HS
* View Name:    schematic
************************************************************************

.SUBCKT INVX2_HS A Y VDD VSS
*.PININFO A:I VDD:I VSS:I Y:O
Mmp0 Y A VDD VDD pfet_01v8 W=2.92u L=150n M=1
Mmn0 Y A VSS VSS nfet_01v8_lvt W=1.52u L=150n M=1
.ENDS

************************************************************************
* Library Name: sky130_scl_9T_HS
* Cell Name:    MX2X1_HS
* View Name:    schematic
************************************************************************

.SUBCKT MX2X1_HS A B S0 Y VDD VSS
*.PININFO A:I B:I S0:I VDD:I VSS:I Y:O
Mmp4 n0 S0b n6 VDD pfet_01v8 W=780n L=150n M=1
Mmp3 n6 B VDD VDD pfet_01v8 W=780n L=150n M=1
Mmp5 Y n0 VDD VDD pfet_01v8 W=1.46u L=150n M=1
Mmp0 S0b S0 VDD VDD pfet_01v8 W=780n L=150n M=1
Mmp2 n0 S0 n4 VDD pfet_01v8 W=780n L=150n M=1
Mmp1 n4 A VDD VDD pfet_01v8 W=780n L=150n M=1
Mmn3 n5 B VSS VSS nfet_01v8_lvt W=425n L=150n M=1
Mmn4 n0 S0 n5 VSS nfet_01v8_lvt W=425n L=150n M=1
Mmn0 S0b S0 VSS VSS nfet_01v8_lvt W=425n L=150n M=1
Mmn1 n3 A VSS VSS nfet_01v8_lvt W=425n L=150n M=1
Mmn5 Y n0 VSS VSS nfet_01v8_lvt W=760n L=150n M=1
Mmn2 n0 S0b n3 VSS nfet_01v8_lvt W=425n L=150n M=1
.ENDS

************************************************************************
* Library Name: sky130_scl_9T_HS
* Cell Name:    AOI21X2_HS
* View Name:    schematic
************************************************************************

.SUBCKT AOI21X2_HS A0 A1 B0 Y VDD VSS
*.PININFO A0:I A1:I B0:I VDD:I VSS:I Y:O
Mmp2 Y B0 net70 VDD pfet_01v8 W=2.92u L=150n M=1
Mmp1 net70 A1 VDD VDD pfet_01v8 W=2.92u L=150n M=1
Mmp0 net70 A0 VDD VDD pfet_01v8 W=2.92u L=150n M=1
Mmn2 Y B0 VSS VSS nfet_01v8_lvt W=1.52u L=150n M=1
Mmn0 net74 A0 VSS VSS nfet_01v8_lvt W=1.52u L=150n M=1
Mmn1 Y A1 net74 VSS nfet_01v8_lvt W=1.52u L=150n M=1
.ENDS

************************************************************************
* Library Name: sky130_scl_9T_HS
* Cell Name:    NOR4X2_HS
* View Name:    schematic
************************************************************************

.SUBCKT NOR4X2_HS A B C D Y VDD VSS
*.PININFO A:I B:I C:I D:I VDD:I VSS:I Y:O
Mmp1 n1 B n0 VDD pfet_01v8 W=2.92u L=150n M=1
Mmp3 Y D n2 VDD pfet_01v8 W=2.92u L=150n M=1
Mmp2 n2 C n1 VDD pfet_01v8 W=2.92u L=150n M=1
Mmp0 n0 A VDD VDD pfet_01v8 W=2.92u L=150n M=1
Mmn2 Y C VSS VSS nfet_01v8_lvt W=1.52u L=150n M=1
Mmn3 Y D VSS VSS nfet_01v8_lvt W=1.52u L=150n M=1
Mmn0 Y A VSS VSS nfet_01v8_lvt W=1.52u L=150n M=1
Mmn1 Y B VSS VSS nfet_01v8_lvt W=1.52u L=150n M=1
.ENDS

************************************************************************
* Library Name: sky130_scl_9T_HS
* Cell Name:    AOI221X2_HS
* View Name:    schematic
************************************************************************

.SUBCKT AOI221X2_HS A0 A1 B0 B1 C0 Y VDD VSS
*.PININFO A0:I A1:I B0:I B1:I C0:I VDD:I VSS:I Y:O
Mmp3 net104 B1 net103 VDD pfet_01v8 W=2.92u L=150n M=1
Mmp2 net104 B0 net103 VDD pfet_01v8 W=2.92u L=150n M=1
Mmp0 net103 A0 VDD VDD pfet_01v8 W=2.92u L=150n M=1
Mmp1 net103 A1 VDD VDD pfet_01v8 W=2.92u L=150n M=1
Mmp4 Y C0 net104 VDD pfet_01v8 W=2.92u L=150n M=1
Mmn2 Y B0 net116 VSS nfet_01v8_lvt W=1.52u L=150n M=1
Mmn3 net116 B1 VSS VSS nfet_01v8_lvt W=1.52u L=150n M=1
Mmn4 Y C0 VSS VSS nfet_01v8_lvt W=1.52u L=150n M=1
Mmn1 Y A1 net124 VSS nfet_01v8_lvt W=1.52u L=150n M=1
Mmn0 net124 A0 VSS VSS nfet_01v8_lvt W=1.52u L=150n M=1
.ENDS

************************************************************************
* Library Name: sky130_scl_9T_HS
* Cell Name:    NOR4X1_HS
* View Name:    schematic
************************************************************************

.SUBCKT NOR4X1_HS A B C D Y VDD VSS
*.PININFO A:I B:I C:I D:I VDD:I VSS:I Y:O
Mmp1 n1 B n0 VDD pfet_01v8 W=1.46u L=150n M=1
Mmp3 Y D n2 VDD pfet_01v8 W=1.46u L=150n M=1
Mmp2 n2 C n1 VDD pfet_01v8 W=1.46u L=150n M=1
Mmp0 n0 A VDD VDD pfet_01v8 W=1.46u L=150n M=1
Mmn2 Y C VSS VSS nfet_01v8_lvt W=760n L=150n M=1
Mmn3 Y D VSS VSS nfet_01v8_lvt W=760n L=150n M=1
Mmn0 Y A VSS VSS nfet_01v8_lvt W=760n L=150n M=1
Mmn1 Y B VSS VSS nfet_01v8_lvt W=760n L=150n M=1
.ENDS

************************************************************************
* Library Name: sky130_scl_9T_HS
* Cell Name:    AOI221X1_HS
* View Name:    schematic
************************************************************************

.SUBCKT AOI221X1_HS A0 A1 B0 B1 C0 Y VDD VSS
*.PININFO A0:I A1:I B0:I B1:I C0:I VDD:I VSS:I Y:O
Mmp3 net108 B1 net111 VDD pfet_01v8 W=1.46u L=150n M=1
Mmp2 net108 B0 net111 VDD pfet_01v8 W=1.46u L=150n M=1
Mmp0 net111 A0 VDD VDD pfet_01v8 W=1.46u L=150n M=1
Mmp1 net111 A1 VDD VDD pfet_01v8 W=1.46u L=150n M=1
Mmp4 Y C0 net108 VDD pfet_01v8 W=1.46u L=150n M=1
Mmn2 net120 B0 VSS VSS nfet_01v8_lvt W=760n L=150n M=1
Mmn3 Y B1 net120 VSS nfet_01v8_lvt W=760n L=150n M=1
Mmn4 Y C0 VSS VSS nfet_01v8_lvt W=760n L=150n M=1
Mmn1 Y A1 net128 VSS nfet_01v8_lvt W=760n L=150n M=1
Mmn0 net128 A0 VSS VSS nfet_01v8_lvt W=760n L=150n M=1
.ENDS

************************************************************************
* Library Name: sky130_scl_9T_HS
* Cell Name:    DFFX1_HS
* View Name:    schematic
************************************************************************

.SUBCKT DFFX1_HS CK D Q QN VDD VSS
*.PININFO CK:I D:I VDD:I VSS:I Q:O QN:O
Mmp26 n20 CKbb n22 VDD pfet_01v8 W=780n L=150n M=1
Mmp25 n22 D VDD VDD pfet_01v8 W=780n L=150n M=1
Mmp51 n30 CKbb n36 VDD pfet_01v8 W=780n L=150n M=1
Mmp50 n36 qbint VDD VDD pfet_01v8 W=780n L=150n M=1
Mmp57 QN qint VDD VDD pfet_01v8 W=1.46u L=150n M=1
Mmp55 Q qbint VDD VDD pfet_01v8 W=1.46u L=150n M=1
Mmp35 n26 mout VDD VDD pfet_01v8 W=780n L=150n M=1
Mmp36 n20 CKb n26 VDD pfet_01v8 W=780n L=150n M=1
Mmp20 CKb CK VDD VDD pfet_01v8 W=780n L=150n M=1
Mmp45 qbint n30 VDD VDD pfet_01v8 W=780n L=150n M=1
Mmp56 qint qbint VDD VDD pfet_01v8 W=780n L=150n M=1
Mmp21 CKbb CKb VDD VDD pfet_01v8 W=780n L=150n M=1
Mmp40 n30 CKb mout VDD pfet_01v8 W=780n L=150n M=1
Mmp30 mout n20 VDD VDD pfet_01v8 W=780n L=150n M=1
Mmn26 n20 CKb n21 VSS nfet_01v8_lvt W=425n L=150n M=1
Mmn25 n21 D VSS VSS nfet_01v8_lvt W=425n L=150n M=1
Mmn57 QN qint VSS VSS nfet_01v8_lvt W=760n L=150n M=1
Mmn55 Q qbint VSS VSS nfet_01v8_lvt W=760n L=150n M=1
Mmn50 n35 qbint VSS VSS nfet_01v8_lvt W=425n L=150n M=1
Mmn51 n30 CKb n35 VSS nfet_01v8_lvt W=425n L=150n M=1
Mmn35 n25 mout VSS VSS nfet_01v8_lvt W=425n L=150n M=1
Mmn36 n20 CKbb n25 VSS nfet_01v8_lvt W=425n L=150n M=1
Mmn20 CKb CK VSS VSS nfet_01v8_lvt W=425n L=150n M=1
Mmn45 qbint n30 VSS VSS nfet_01v8_lvt W=425n L=150n M=1
Mmn56 qint qbint VSS VSS nfet_01v8_lvt W=425n L=150n M=1
Mmn21 CKbb CKb VSS VSS nfet_01v8_lvt W=425n L=150n M=1
Mmn30 mout n20 VSS VSS nfet_01v8_lvt W=425n L=150n M=1
Mmn40 n30 CKbb mout VSS nfet_01v8_lvt W=425n L=150n M=1
.ENDS

************************************************************************
* Library Name: sky130_scl_9T_HS
* Cell Name:    DFFRX4_HS
* View Name:    schematic
************************************************************************

.SUBCKT DFFRX4_HS CK D Q QN RN VDD VSS
*.PININFO CK:I D:I RN:I VDD:I VSS:I Q:O QN:O
Mmp26 n20 CKbb n22 VDD pfet_01v8 W=780n L=150n M=1
Mmp25 n22 D VDD VDD pfet_01v8 W=780n L=150n M=1
Mmp51 n30 CKbb n41 VDD pfet_01v8 W=780n L=150n M=1
Mmp50 n41 qbint VDD VDD pfet_01v8 W=780n L=150n M=1
Mmp57 QN qint VDD VDD pfet_01v8 W=5.84u L=150n M=1
Mmp55 Q qbint VDD VDD pfet_01v8 W=5.84u L=150n M=1
Mmp20 CKb CK VDD VDD pfet_01v8 W=780n L=150n M=1
Mmp21 CKbb CKb VDD VDD pfet_01v8 W=780n L=150n M=1
Mmp36 n26 mout VDD VDD pfet_01v8 W=780n L=150n M=1
Mmp30 mout n20 VDD VDD pfet_01v8 W=780n L=150n M=1
Mmp35 n26 RN VDD VDD pfet_01v8 W=780n L=150n M=1
Mmp37 n20 CKb n26 VDD pfet_01v8 W=780n L=150n M=1
Mmp46 qbint n30 VDD VDD pfet_01v8 W=2.5u L=150n M=1
Mmp40 n30 CKb mout VDD pfet_01v8 W=780n L=150n M=1
Mmp45 qbint RN VDD VDD pfet_01v8 W=2.5u L=150n M=1
Mmp56 qint qbint VDD VDD pfet_01v8 W=1.46u L=150n M=1
Mmn36 n25 mout n27 VSS nfet_01v8_lvt W=425n L=150n M=1
Mmn35 n27 RN VSS VSS nfet_01v8_lvt W=425n L=150n M=1
Mmn37 n20 CKbb n25 VSS nfet_01v8_lvt W=425n L=150n M=1
Mmn26 n20 CKb n21 VSS nfet_01v8_lvt W=425n L=150n M=1
Mmn25 n21 D VSS VSS nfet_01v8_lvt W=425n L=150n M=1
Mmn57 QN qint VSS VSS nfet_01v8_lvt W=3.04u L=150n M=1
Mmn55 Q qbint VSS VSS nfet_01v8_lvt W=3.04u L=150n M=1
Mmn45 n35 RN VSS VSS nfet_01v8_lvt W=1.2u L=150n M=1
Mmn46 qbint n30 n35 VSS nfet_01v8_lvt W=1.2u L=150n M=1
Mmn51 n30 CKb n40 VSS nfet_01v8_lvt W=425n L=150n M=1
Mmn50 n40 qbint VSS VSS nfet_01v8_lvt W=425n L=150n M=1
Mmn21 CKbb CKb VSS VSS nfet_01v8_lvt W=425n L=150n M=1
Mmn40 n30 CKbb mout VSS nfet_01v8_lvt W=425n L=150n M=1
Mmn30 mout n20 VSS VSS nfet_01v8_lvt W=425n L=150n M=1
Mmn56 qint qbint VSS VSS nfet_01v8_lvt W=760n L=150n M=1
Mmn20 CKb CK VSS VSS nfet_01v8_lvt W=425n L=150n M=1
.ENDS

************************************************************************
* Library Name: sky130_scl_9T_HS
* Cell Name:    AOI21X1_HS
* View Name:    schematic
************************************************************************

.SUBCKT AOI21X1_HS A0 A1 B0 Y VDD VSS
*.PININFO A0:I A1:I B0:I VDD:I VSS:I Y:O
Mmp2 Y B0 net62 VDD pfet_01v8 W=1.46u L=150n M=1
Mmp1 net62 A1 VDD VDD pfet_01v8 W=1.46u L=150n M=1
Mmp0 net62 A0 VDD VDD pfet_01v8 W=1.46u L=150n M=1
Mmn2 Y B0 VSS VSS nfet_01v8_lvt W=760n L=150n M=1
Mmn0 net78 A0 VSS VSS nfet_01v8_lvt W=760n L=150n M=1
Mmn1 Y A1 net78 VSS nfet_01v8_lvt W=760n L=150n M=1
.ENDS

************************************************************************
* Library Name: sky130_scl_9T_HS
* Cell Name:    INVX1_HS
* View Name:    schematic
************************************************************************

.SUBCKT INVX1_HS A Y VDD VSS
*.PININFO A:I VDD:I VSS:I Y:O
Mmn0 Y A VSS VSS nfet_01v8_lvt W=760n L=150n M=1
Mmp0 Y A VDD VDD pfet_01v8 W=1.46u L=150n M=1
.ENDS

************************************************************************
* Library Name: sky130_scl_9T_HS
* Cell Name:    OR4X1_HS
* View Name:    schematic
************************************************************************

.SUBCKT OR4X1_HS A B C D Y VDD VSS
*.PININFO A:I B:I C:I D:I VDD:I VSS:I Y:O
Mmp4 Y n0 VDD VDD pfet_01v8 W=1.46u L=150n M=1
Mmp0 n1 A VDD VDD pfet_01v8 W=780n L=150n M=1
Mmp3 n0 D n3 VDD pfet_01v8 W=780n L=150n M=1
Mmp1 n2 B n1 VDD pfet_01v8 W=780n L=150n M=1
Mmp2 n3 C n2 VDD pfet_01v8 W=780n L=150n M=1
Mmn4 Y n0 VSS VSS nfet_01v8_lvt W=760n L=150n M=1
Mmn3 n0 D VSS VSS nfet_01v8_lvt W=425n L=150n M=1
Mmn0 n0 A VSS VSS nfet_01v8_lvt W=425n L=150n M=1
Mmn2 n0 C VSS VSS nfet_01v8_lvt W=425n L=150n M=1
Mmn1 n0 B VSS VSS nfet_01v8_lvt W=425n L=150n M=1
.ENDS

************************************************************************
* Library Name: sky130_scl_9T_HS
* Cell Name:    OAI221X1_HS
* View Name:    schematic
************************************************************************

.SUBCKT OAI221X1_HS A0 A1 B0 B1 C0 Y VDD VSS
*.PININFO A0:I A1:I B0:I B1:I C0:I VDD:I VSS:I Y:O
Mmp3 Y B1 net123 VDD pfet_01v8 W=1.46u L=150n M=1
Mmp0 net115 A0 VDD VDD pfet_01v8 W=1.46u L=150n M=1
Mmp1 Y A1 net115 VDD pfet_01v8 W=1.46u L=150n M=1
Mmp2 net123 B0 VDD VDD pfet_01v8 W=1.46u L=150n M=1
Mmp4 Y C0 VDD VDD pfet_01v8 W=1.46u L=150n M=1
Mmn4 Y C0 net132 VSS nfet_01v8_lvt W=760n L=150n M=1
Mmn0 net128 A0 VSS VSS nfet_01v8_lvt W=760n L=150n M=1
Mmn1 net128 A1 VSS VSS nfet_01v8_lvt W=760n L=150n M=1
Mmn2 net132 B0 net128 VSS nfet_01v8_lvt W=760n L=150n M=1
Mmn3 net132 B1 net128 VSS nfet_01v8_lvt W=760n L=150n M=1
.ENDS

************************************************************************
* Library Name: sky130_scl_9T_HS
* Cell Name:    DLY4X4_HS
* View Name:    schematic
************************************************************************

.SUBCKT DLY4X4_HS A Y VDD VSS
*.PININFO A:I VDD:I VSS:I Y:O
Mmp8 net369 VSS net300 VDD pfet_01v8 W=780n L=150n M=1
Mmp7 net300 net377 VDD VDD pfet_01v8 W=780n L=150n M=1
Mmp9 net292 net369 VDD VDD pfet_01v8 W=780n L=150n M=1
Mmp10 net361 VSS net292 VDD pfet_01v8 W=780n L=150n M=1
Mmp6 net377 VSS net308 VDD pfet_01v8 W=780n L=150n M=1
Mmp5 net308 net385 VDD VDD pfet_01v8 W=780n L=150n M=1
Mmp4 net385 VSS net316 VDD pfet_01v8 W=780n L=150n M=1
Mmp3 net316 net393 VDD VDD pfet_01v8 W=780n L=150n M=1
Mmp2 net393 VSS net324 VDD pfet_01v8 W=780n L=150n M=1
Mmp1 net324 net397 VDD VDD pfet_01v8 W=780n L=150n M=1
Mmp11 net284 net361 VDD VDD pfet_01v8 W=780n L=150n M=1
Mmp12 net353 VSS net284 VDD pfet_01v8 W=780n L=150n M=1
Mmp13 net276 net353 VDD VDD pfet_01v8 W=780n L=150n M=1
Mmp14 net345 VSS net276 VDD pfet_01v8 W=780n L=150n M=1
Mmp15 net333 net345 VDD VDD pfet_01v8 W=1.46u L=150n M=1
Mmp0 net397 A VDD VDD pfet_01v8 W=780n L=150n M=1
Mmp16 Y net333 VDD VDD pfet_01v8 W=5.84u L=150n M=1
Mmn14 net345 VDD net341 VSS nfet_01v8_lvt W=425n L=150n M=1
Mmn13 net341 net353 VSS VSS nfet_01v8_lvt W=425n L=150n M=1
Mmn12 net353 VDD net349 VSS nfet_01v8_lvt W=425n L=150n M=1
Mmn11 net349 net361 VSS VSS nfet_01v8_lvt W=425n L=150n M=1
Mmn10 net361 VDD net357 VSS nfet_01v8_lvt W=425n L=150n M=1
Mmn9 net357 net369 VSS VSS nfet_01v8_lvt W=425n L=150n M=1
Mmn15 net333 net345 VSS VSS nfet_01v8_lvt W=760n L=150n M=1
Mmn6 net377 VDD net373 VSS nfet_01v8_lvt W=425n L=150n M=1
Mmn0 net397 A VSS VSS nfet_01v8_lvt W=425n L=150n M=1
Mmn4 net385 VDD net381 VSS nfet_01v8_lvt W=425n L=150n M=1
Mmn1 net389 net397 VSS VSS nfet_01v8_lvt W=425n L=150n M=1
Mmn7 net365 net377 VSS VSS nfet_01v8_lvt W=425n L=150n M=1
Mmn16 Y net333 VSS VSS nfet_01v8_lvt W=3.04u L=150n M=1
Mmn3 net381 net393 VSS VSS nfet_01v8_lvt W=425n L=150n M=1
Mmn2 net393 VDD net389 VSS nfet_01v8_lvt W=425n L=150n M=1
Mmn8 net369 VDD net365 VSS nfet_01v8_lvt W=425n L=150n M=1
Mmn5 net373 net385 VSS VSS nfet_01v8_lvt W=425n L=150n M=1
.ENDS

************************************************************************
* Library Name: sky130_scl_9T_HS
* Cell Name:    AND3X1_HS
* View Name:    schematic
************************************************************************

.SUBCKT AND3X1_HS A B C Y VDD VSS
*.PININFO A:I B:I C:I VDD:I VSS:I Y:O
Mmp1 net086 B VDD VDD pfet_01v8 W=780n L=150n M=1
Mmp2 net086 C VDD VDD pfet_01v8 W=780n L=150n M=1
Mmp0 net086 A VDD VDD pfet_01v8 W=780n L=150n M=1
Mmp3 Y net086 VDD VDD pfet_01v8 W=1.46u L=150n M=1
Mmn3 Y net086 VSS VSS nfet_01v8_lvt W=760n L=150n M=1
Mmn1 net0106 B net0102 VSS nfet_01v8_lvt W=425n L=150n M=1
Mmn0 net0102 A VSS VSS nfet_01v8_lvt W=425n L=150n M=1
Mmn2 net086 C net0106 VSS nfet_01v8_lvt W=425n L=150n M=1
.ENDS

************************************************************************
* Library Name: sky130_scl_9T_HS
* Cell Name:    CLKXOR2X1_HS
* View Name:    schematic
************************************************************************

.SUBCKT CLKXOR2X1_HS A B Y VDD VSS
*.PININFO A:I B:I VDD:I VSS:I Y:O
Mmp3 n0 n2 net130 VDD pfet_01v8 W=780n L=150n M=1
Mmp1 n2 B VDD VDD pfet_01v8 W=780n L=150n M=1
Mmp4 n0 B n1 VDD pfet_01v8 W=780n L=150n M=1
Mmp0 n1 A VDD VDD pfet_01v8 W=780n L=150n M=1
Mmp5 Y n0 VDD VDD pfet_01v8 W=1.46u L=150n M=1
Mmp2 net130 n1 VDD VDD pfet_01v8 W=780n L=150n M=1
Mmn1 n2 B VSS VSS nfet_01v8_lvt W=425n L=150n M=1
Mmn0 n1 A VSS VSS nfet_01v8_lvt W=425n L=150n M=1
Mmn5 Y n0 VSS VSS nfet_01v8_lvt W=760n L=150n M=1
Mmn3 n0 B net139 VSS nfet_01v8_lvt W=425n L=150n M=1
Mmn4 n0 n2 n1 VSS nfet_01v8_lvt W=425n L=150n M=1
Mmn2 net139 n1 VSS VSS nfet_01v8_lvt W=425n L=150n M=1
.ENDS

************************************************************************
* Library Name: sky130_scl_9T_HS
* Cell Name:    MX2X4_HS
* View Name:    schematic
************************************************************************

.SUBCKT MX2X4_HS A B S0 Y VDD VSS
*.PININFO A:I B:I S0:I VDD:I VSS:I Y:O
Mmp4 n0 S0b n6 VDD pfet_01v8 W=1.25u L=150n M=1
Mmp3 n6 B VDD VDD pfet_01v8 W=1.25u L=150n M=1
Mmp5 Y n0 VDD VDD pfet_01v8 W=5.84u L=150n M=1
Mmp0 S0b S0 VDD VDD pfet_01v8 W=780n L=150n M=1
Mmp2 n0 S0 n4 VDD pfet_01v8 W=1.25u L=150n M=1
Mmp1 n4 A VDD VDD pfet_01v8 W=1.25u L=150n M=1
Mmn3 n5 B VSS VSS nfet_01v8_lvt W=600n L=150n M=1
Mmn4 n0 S0 n5 VSS nfet_01v8_lvt W=600n L=150n M=1
Mmn0 S0b S0 VSS VSS nfet_01v8_lvt W=425n L=150n M=1
Mmn1 n3 A VSS VSS nfet_01v8_lvt W=600n L=150n M=1
Mmn5 Y n0 VSS VSS nfet_01v8_lvt W=3.04u L=150n M=1
Mmn2 n0 S0b n3 VSS nfet_01v8_lvt W=600n L=150n M=1
.ENDS

************************************************************************
* Library Name: sky130_scl_9T_HS
* Cell Name:    BUFX8_HS
* View Name:    schematic
************************************************************************

.SUBCKT BUFX8_HS A Y VDD VSS
*.PININFO A:I VDD:I VSS:I Y:O
Mmp1 Y n0 VDD VDD pfet_01v8 W=11.68u L=150n M=1
Mmp0 n0 A VDD VDD pfet_01v8 W=2.92u L=150n M=1
Mmn1 VSS n0 Y VSS nfet_01v8_lvt W=6.08u L=150n M=1
Mmn0 VSS A n0 VSS nfet_01v8_lvt W=1.52u L=150n M=1
.ENDS

************************************************************************
* Library Name: sky130_scl_9T_HS
* Cell Name:    INVX4_HS
* View Name:    schematic
************************************************************************

.SUBCKT INVX4_HS A Y VDD VSS
*.PININFO A:I VDD:I VSS:I Y:O
Mmp0 Y A VDD VDD pfet_01v8 W=5.84u L=150n M=1
Mmn0 Y A VSS VSS nfet_01v8_lvt W=3.04u L=150n M=1
.ENDS

************************************************************************
* Library Name: sky130_scl_9T_HS
* Cell Name:    DFFRX1_HS
* View Name:    schematic
************************************************************************

.SUBCKT DFFRX1_HS CK D Q QN RN VDD VSS
*.PININFO CK:I D:I RN:I VDD:I VSS:I Q:O QN:O
Mmp26 n20 CKbb n22 VDD pfet_01v8 W=780n L=150n M=1
Mmp25 n22 D VDD VDD pfet_01v8 W=780n L=150n M=1
Mmp51 n30 CKbb n41 VDD pfet_01v8 W=780n L=150n M=1
Mmp50 n41 qbint VDD VDD pfet_01v8 W=780n L=150n M=1
Mmp57 QN qint VDD VDD pfet_01v8 W=1.46u L=150n M=1
Mmp55 Q qbint VDD VDD pfet_01v8 W=1.46u L=150n M=1
Mmp20 CKb CK VDD VDD pfet_01v8 W=780n L=150n M=1
Mmp21 CKbb CKb VDD VDD pfet_01v8 W=780n L=150n M=1
Mmp36 n26 mout VDD VDD pfet_01v8 W=780n L=150n M=1
Mmp30 mout n20 VDD VDD pfet_01v8 W=780n L=150n M=1
Mmp35 n26 RN VDD VDD pfet_01v8 W=780n L=150n M=1
Mmp37 n20 CKb n26 VDD pfet_01v8 W=780n L=150n M=1
Mmp46 qbint n30 VDD VDD pfet_01v8 W=780n L=150n M=1
Mmp40 n30 CKb mout VDD pfet_01v8 W=780n L=150n M=1
Mmp45 qbint RN VDD VDD pfet_01v8 W=780n L=150n M=1
Mmp56 qint qbint VDD VDD pfet_01v8 W=780n L=150n M=1
Mmn36 n25 mout n27 VSS nfet_01v8_lvt W=425n L=150n M=1
Mmn35 n27 RN VSS VSS nfet_01v8_lvt W=425n L=150n M=1
Mmn37 n20 CKbb n25 VSS nfet_01v8_lvt W=425n L=150n M=1
Mmn26 n20 CKb n21 VSS nfet_01v8_lvt W=425n L=150n M=1
Mmn25 n21 D VSS VSS nfet_01v8_lvt W=425n L=150n M=1
Mmn57 QN qint VSS VSS nfet_01v8_lvt W=760n L=150n M=1
Mmn55 Q qbint VSS VSS nfet_01v8_lvt W=760n L=150n M=1
Mmn45 n35 RN VSS VSS nfet_01v8_lvt W=425n L=150n M=1
Mmn46 qbint n30 n35 VSS nfet_01v8_lvt W=425n L=150n M=1
Mmn51 n30 CKb n40 VSS nfet_01v8_lvt W=425n L=150n M=1
Mmn50 n40 qbint VSS VSS nfet_01v8_lvt W=425n L=150n M=1
Mmn21 CKbb CKb VSS VSS nfet_01v8_lvt W=425n L=150n M=1
Mmn40 n30 CKbb mout VSS nfet_01v8_lvt W=425n L=150n M=1
Mmn30 mout n20 VSS VSS nfet_01v8_lvt W=425n L=150n M=1
Mmn56 qint qbint VSS VSS nfet_01v8_lvt W=425n L=150n M=1
Mmn20 CKb CK VSS VSS nfet_01v8_lvt W=425n L=150n M=1
.ENDS

************************************************************************
* Library Name: sky130_scl_9T_HS
* Cell Name:    TLATSRX1_HS
* View Name:    schematic
************************************************************************

.SUBCKT TLATSRX1_HS D G Q QN RN SN VDD VSS
*.PININFO D:I G:I RN:I SN:I VDD:I VSS:I Q:O QN:O
MPM0 Gb RN VDD VDD pfet_01v8 W=780n L=150n M=1
MPM1 Qint SN VDD VDD pfet_01v8 W=780n L=150n M=1
Mmp26 n0 Gb n22 VDD pfet_01v8 W=780n L=150n M=1
Mmp25 n22 D VDD VDD pfet_01v8 W=780n L=150n M=1
Mmp57 QN Qint VDD VDD pfet_01v8 W=1.46u L=150n M=1
Mmp55 Qbint Qint VDD VDD pfet_01v8 W=1.46u L=150n M=1
Mmp35 n26 Qint VDD VDD pfet_01v8 W=780n L=150n M=1
Mmp36 n0 Gbb n26 VDD pfet_01v8 W=780n L=150n M=1
Mmp20 Gb G VDD VDD pfet_01v8 W=780n L=150n M=1
Mmp56 Q Qbint VDD VDD pfet_01v8 W=1.46u L=150n M=1
Mmp21 Gbb Gb VDD VDD pfet_01v8 W=780n L=150n M=1
MPM2 n26 RN VDD VDD pfet_01v8 W=780n L=150n M=1
Mmp30 Qint n0 VDD VDD pfet_01v8 W=780n L=150n M=1
Mmn26 n0 Gbb n21 VSS nfet_01v8_lvt W=425n L=150n M=1
Mmn25 n21 D VSS VSS nfet_01v8_lvt W=425n L=150n M=1
Mmn57 QN Qint VSS VSS nfet_01v8_lvt W=760n L=150n M=1
Mmn55 Qbint Qint VSS VSS nfet_01v8_lvt W=760n L=150n M=1
Mmn35 n25 Qint net3 VSS nfet_01v8_lvt W=425n L=150n M=1
Mmn36 n0 Gb n25 VSS nfet_01v8_lvt W=425n L=150n M=1
Mmn20 Gb G net1 VSS nfet_01v8_lvt W=425n L=150n M=1
MNM0 net1 RN VSS VSS nfet_01v8_lvt W=425n L=150n M=1
Mmn56 Q Qbint VSS VSS nfet_01v8_lvt W=760n L=150n M=1
Mmn21 Gbb Gb VSS VSS nfet_01v8_lvt W=425n L=150n M=1
Mmn30 Qint n0 net2 VSS nfet_01v8_lvt W=425n L=150n M=1
MNM1 net2 SN VSS VSS nfet_01v8_lvt W=425n L=150n M=1
MNM2 net3 RN VSS VSS nfet_01v8_lvt W=425n L=150n M=1
.ENDS

************************************************************************
* Library Name: sky130_scl_9T_HS
* Cell Name:    DFFX4_HS
* View Name:    schematic
************************************************************************

.SUBCKT DFFX4_HS CK D Q QN VDD VSS
*.PININFO CK:I D:I VDD:I VSS:I Q:O QN:O
Mmp26 n20 CKbb n22 VDD pfet_01v8 W=780n L=150n M=1
Mmp25 n22 D VDD VDD pfet_01v8 W=780n L=150n M=1
Mmp51 n30 CKbb n36 VDD pfet_01v8 W=780n L=150n M=1
Mmp50 n36 qbint VDD VDD pfet_01v8 W=780n L=150n M=1
Mmp57 QN qint VDD VDD pfet_01v8 W=5.84u L=150n M=1
Mmp55 Q qbint VDD VDD pfet_01v8 W=5.84u L=150n M=1
Mmp35 n26 mout VDD VDD pfet_01v8 W=780n L=150n M=1
Mmp36 n20 CKb n26 VDD pfet_01v8 W=780n L=150n M=1
Mmp20 CKb CK VDD VDD pfet_01v8 W=780n L=150n M=1
Mmp45 qbint n30 VDD VDD pfet_01v8 W=2.24u L=150n M=1
Mmp56 qint qbint VDD VDD pfet_01v8 W=1.46u L=150n M=1
Mmp21 CKbb CKb VDD VDD pfet_01v8 W=780n L=150n M=1
Mmp40 n30 CKb mout VDD pfet_01v8 W=780n L=150n M=1
Mmp30 mout n20 VDD VDD pfet_01v8 W=780n L=150n M=1
Mmn26 n20 CKb n21 VSS nfet_01v8_lvt W=425n L=150n M=1
Mmn25 n21 D VSS VSS nfet_01v8_lvt W=425n L=150n M=1
Mmn57 QN qint VSS VSS nfet_01v8_lvt W=3.04u L=150n M=1
Mmn55 Q qbint VSS VSS nfet_01v8_lvt W=3.04u L=150n M=1
Mmn50 n35 qbint VSS VSS nfet_01v8_lvt W=425n L=150n M=1
Mmn51 n30 CKb n35 VSS nfet_01v8_lvt W=425n L=150n M=1
Mmn35 n25 mout VSS VSS nfet_01v8_lvt W=425n L=150n M=1
Mmn36 n20 CKbb n25 VSS nfet_01v8_lvt W=425n L=150n M=1
Mmn20 CKb CK VSS VSS nfet_01v8_lvt W=425n L=150n M=1
Mmn45 qbint n30 VSS VSS nfet_01v8_lvt W=1.2u L=150n M=1
Mmn56 qint qbint VSS VSS nfet_01v8_lvt W=760n L=150n M=1
Mmn21 CKbb CKb VSS VSS nfet_01v8_lvt W=425n L=150n M=1
Mmn30 mout n20 VSS VSS nfet_01v8_lvt W=425n L=150n M=1
Mmn40 n30 CKbb mout VSS nfet_01v8_lvt W=425n L=150n M=1
.ENDS

************************************************************************
* Library Name: sky130_scl_9T_HS
* Cell Name:    AND3X2_HS
* View Name:    schematic
************************************************************************

.SUBCKT AND3X2_HS A B C Y VDD VSS
*.PININFO A:I B:I C:I VDD:I VSS:I Y:O
Mmp1 net95 B VDD VDD pfet_01v8 W=780n L=150n M=1
Mmp2 net95 C VDD VDD pfet_01v8 W=780n L=150n M=1
Mmp0 net95 A VDD VDD pfet_01v8 W=780n L=150n M=1
Mmp3 Y net95 VDD VDD pfet_01v8 W=2.92u L=150n M=1
Mmn3 Y net95 VSS VSS nfet_01v8_lvt W=1.52u L=150n M=1
Mmn1 net111 B net103 VSS nfet_01v8_lvt W=425n L=150n M=1
Mmn0 net103 A VSS VSS nfet_01v8_lvt W=425n L=150n M=1
Mmn2 net95 C net111 VSS nfet_01v8_lvt W=425n L=150n M=1
.ENDS

************************************************************************
* Library Name: sky130_scl_9T_HS
* Cell Name:    NOR4X4_HS
* View Name:    schematic
************************************************************************

.SUBCKT NOR4X4_HS A B C D Y VDD VSS
*.PININFO A:I B:I C:I D:I VDD:I VSS:I Y:O
Mmp1 n1 B n0 VDD pfet_01v8 W=5.84u L=150n M=1
Mmp3 Y D n2 VDD pfet_01v8 W=5.84u L=150n M=1
Mmp2 n2 C n1 VDD pfet_01v8 W=5.84u L=150n M=1
Mmp0 n0 A VDD VDD pfet_01v8 W=5.84u L=150n M=1
Mmn2 Y C VSS VSS nfet_01v8_lvt W=3.04u L=150n M=1
Mmn3 Y D VSS VSS nfet_01v8_lvt W=3.04u L=150n M=1
Mmn0 Y A VSS VSS nfet_01v8_lvt W=3.04u L=150n M=1
Mmn1 Y B VSS VSS nfet_01v8_lvt W=3.04u L=150n M=1
.ENDS

************************************************************************
* Library Name: sky130_scl_9T_HS
* Cell Name:    DFFSRX1_HS
* View Name:    schematic
************************************************************************

.SUBCKT DFFSRX1_HS CK D Q QN RN SN VDD VSS
*.PININFO CK:I D:I RN:I SN:I VDD:I VSS:I Q:O QN:O
Mmp26 n20 CKbb n22 VDD pfet_01v8 W=780n L=150n M=1
Mmp25 n22 D VDD VDD pfet_01v8 W=780n L=150n M=1
Mmp52 n41 qbint n43 VDD pfet_01v8 W=780n L=150n M=1
Mmp51 n43 RNb VDD VDD pfet_01v8 W=780n L=150n M=1
Mmp57 QN qint VDD VDD pfet_01v8 W=1.46u L=150n M=1
Mmp55 Q qbint VDD VDD pfet_01v8 W=1.46u L=150n M=1
Mmp36 n20 CKb n31 VDD pfet_01v8 W=780n L=150n M=1
Mmp35 n31 mout VDD VDD pfet_01v8 W=780n L=150n M=1
Mmp32 mout n20 net402 VDD pfet_01v8 W=780n L=150n M=1
Mmp31 net402 RNb VDD VDD pfet_01v8 W=780n L=150n M=1
Mmp22 RNb RN VDD VDD pfet_01v8 W=780n L=150n M=1
Mmp20 CKb CK VDD VDD pfet_01v8 W=780n L=150n M=1
Mmp53 n35 CKbb n41 VDD pfet_01v8 W=780n L=150n M=1
Mmp50 n41 SN VDD VDD pfet_01v8 W=780n L=150n M=1
Mmp45 qbint n35 VDD VDD pfet_01v8 W=780n L=150n M=1
Mmp56 qint qbint VDD VDD pfet_01v8 W=780n L=150n M=1
Mmp21 CKbb CKb VDD VDD pfet_01v8 W=780n L=150n M=1
Mmp30 mout SN VDD VDD pfet_01v8 W=780n L=150n M=1
Mmp40 n35 CKb mout VDD pfet_01v8 W=780n L=150n M=1
Mmn26 n20 CKb n21 VSS nfet_01v8_lvt W=425n L=150n M=1
Mmn25 n21 D VSS VSS nfet_01v8_lvt W=425n L=150n M=1
Mmn57 QN qint VSS VSS nfet_01v8_lvt W=760n L=150n M=1
Mmn55 Q qbint VSS VSS nfet_01v8_lvt W=760n L=150n M=1
Mmn35 n30 mout VSS VSS nfet_01v8_lvt W=425n L=150n M=1
Mmn36 n20 CKbb n30 VSS nfet_01v8_lvt W=425n L=150n M=1
Mmn22 RNb RN VSS VSS nfet_01v8_lvt W=425n L=150n M=1
Mmn20 CKb CK VSS VSS nfet_01v8_lvt W=425n L=150n M=1
Mmn45 qbint n35 VSS VSS nfet_01v8_lvt W=425n L=150n M=1
Mmn56 qint qbint VSS VSS nfet_01v8_lvt W=425n L=150n M=1
Mmn52 n40 qbint n42 VSS nfet_01v8_lvt W=425n L=150n M=1
Mmn51 n40 RNb n42 VSS nfet_01v8_lvt W=425n L=150n M=1
Mmn50 n42 SN VSS VSS nfet_01v8_lvt W=425n L=150n M=1
Mmn53 n35 CKb n40 VSS nfet_01v8_lvt W=425n L=150n M=1
Mmn21 CKbb CKb VSS VSS nfet_01v8_lvt W=425n L=150n M=1
Mmn32 mout n20 net426 VSS nfet_01v8_lvt W=425n L=150n M=1
Mmn31 mout RNb net426 VSS nfet_01v8_lvt W=425n L=150n M=1
Mmn40 n35 CKbb mout VSS nfet_01v8_lvt W=425n L=150n M=1
Mmn30 net426 SN VSS VSS nfet_01v8_lvt W=425n L=150n M=1
.ENDS

************************************************************************
* Library Name: sky130_scl_9T_HS
* Cell Name:    XNOR2X4_HS
* View Name:    schematic
************************************************************************

.SUBCKT XNOR2X4_HS A B Y VDD VSS
*.PININFO A:I B:I VDD:I VSS:I Y:O
Mmp0 n1 A VDD VDD pfet_01v8 W=780n L=150n M=1
Mmp4 n1 n2 n0 VDD pfet_01v8 W=1.46u L=150n M=1
Mmp2 net112 n1 VDD VDD pfet_01v8 W=1.46u L=150n M=1
Mmp1 n2 B VDD VDD pfet_01v8 W=780n L=150n M=1
Mmp3 n0 B net112 VDD pfet_01v8 W=1.46u L=150n M=1
Mmp5 Y n0 VDD VDD pfet_01v8 W=5.84u L=150n M=1
Mmn1 n2 B VSS VSS nfet_01v8_lvt W=425n L=150n M=1
Mmn2 net145 n1 VSS VSS nfet_01v8_lvt W=760n L=150n M=1
Mmn3 n0 n2 net145 VSS nfet_01v8_lvt W=760n L=150n M=1
Mmn5 Y n0 VSS VSS nfet_01v8_lvt W=3.04u L=150n M=1
Mmn0 n1 A VSS VSS nfet_01v8_lvt W=425n L=150n M=1
Mmn4 n0 B n1 VSS nfet_01v8_lvt W=760n L=150n M=1
.ENDS

************************************************************************
* Library Name: sky130_scl_9T_HS
* Cell Name:    NAND4X2_HS