// Point Netlist Generated on: Jan 13 12:40:26 2025
// Generated for: spectre
// Design Netlist Generated on: Jan 13 12:40:24 2025
// Design library name: work
// Design cell name: allCells_HS
// Design view name: schematic
simulator lang=spectre
global 0 VSS! VDD!
include "/vols/wfo_devel/projects/reference_SKY130/tech/sky130_release_0.0.4/libs/sky130_fd_pr_main/../../models/sky130.lib.spice" section=tt

// Library name: sky130_scl_9T_HS
// Cell name: OR4X2_HS
// View name: schematic
subckt OR4X2_HS A B C D VDD VSS Y
    mp4 (Y n0 VDD VDD) pfet_01v8 w=1.13u l=150n as=386.9f \
        ad=204.4f ps=3.45u pd=1.74u m=2
    mp0 (n1 A VDD VDD) pfet_01v8 w=1.13u l=150n as=206.7f \
        ad=206.7f ps=2.09u pd=2.09u m=2
    mp3 (n0 D n3 VDD) pfet_01v8 w=(780n) l=150n as=206.7f ad=206.7f \
        ps=2.09u pd=2.09u m=(1)*(1)
    mp1 (n2 B n1 VDD) pfet_01v8 w=(780n) l=150n as=206.7f ad=206.7f \
        ps=2.09u pd=2.09u m=(1)*(1)
    mp2 (n3 C n2 VDD) pfet_01v8 w=(780n) l=150n as=206.7f ad=206.7f \
        ps=2.09u pd=2.09u m=(1)*(1)
    mn4 (Y n0 VSS VSS) nfet_01v8_lvt w=(760n) l=150n as=201.4f \
        ad=106.4f ps=2.05u pd=1.04u m=(1)*(2)
    mn3 (n0 D VSS VSS) nfet_01v8_lvt w=(425n) l=150n as=112.625f \
        ad=112.625f ps=1.38u pd=1.38u m=(1)*(1)
    mn0 (n0 A VSS VSS) nfet_01v8_lvt w=(425n) l=150n as=112.625f \
        ad=112.625f ps=1.38u pd=1.38u m=(1)*(1)
    mn2 (n0 C VSS VSS) nfet_01v8_lvt w=(425n) l=150n as=112.625f \
        ad=112.625f ps=1.38u pd=1.38u m=(1)*(1)
    mn1 (n0 B VSS VSS) nfet_01v8_lvt w=(425n) l=150n as=112.625f \
        ad=112.625f ps=1.38u pd=1.38u m=(1)*(1)
ends OR4X2_HS
// End of subcircuit definition.

// Library name: sky130_scl_9T_HS
// Cell name: OAI221X2_HS
// View name: schematic
subckt OAI221X2_HS A0 A1 B0 B1 C0 VDD VSS Y
    mp3 (Y B1 net123 VDD) pfet_01v8 w=(1.46u) l=150n as=386.9f \
        ad=204.4f ps=3.45u pd=1.74u m=(1)*(2)
    mp0 (net115 A0 VDD VDD) pfet_01v8 w=1.13u l=150n as=295.65f \
        ad=204.4f ps=2.595u pd=1.74u m=2
    mp1 (Y A1 net115 VDD) pfet_01v8 w=(1.46u) l=150n as=386.9f \
        ad=204.4f ps=3.45u pd=1.74u m=(1)*(2)
    mp2 (net123 B0 VDD VDD) pfet_01v8 w=(1.46u) l=150n as=386.9f \
        ad=204.4f ps=3.45u pd=1.74u m=(1)*(2)
    mp4 (Y C0 VDD VDD) pfet_01v8 w=(1.46u) l=150n as=386.9f \
        ad=204.4f ps=3.45u pd=1.74u m=(1)*(2)
    mn4 (Y C0 net132 VSS) nfet_01v8_lvt w=(760n) l=150n as=201.4f \
        ad=106.4f ps=2.05u pd=1.04u m=(1)*(2)
    mn0 (net128 A0 VSS VSS) nfet_01v8_lvt w=(760n) l=150n \
        as=201.4f ad=106.4f ps=2.05u pd=1.04u m=(1)*(2)
    mn1 (net128 A1 VSS VSS) nfet_01v8_lvt w=(760n) l=150n \
        as=201.4f ad=106.4f ps=2.05u pd=1.04u m=(1)*(2)
    mn2 (net132 B0 net128 VSS) nfet_01v8_lvt w=(760n) l=150n as=201.4f \
        ad=106.4f ps=2.05u pd=1.04u m=(1)*(2)
    mn3 (net132 B1 net128 VSS) nfet_01v8_lvt w=(760n) l=150n as=201.4f \
        ad=106.4f ps=2.05u pd=1.04u m=(1)*(2)
ends OAI221X2_HS
// End of subcircuit definition.

// Library name: sky130_scl_9T_HS
// Cell name: INVX16_HS
// View name: schematic
subckt INVX16_HS A VDD VSS Y
    mp0 (Y A VDD VDD) pfet_01v8 w=1.13u l=150n as=227.213f \
        ad=204.4f ps=1.95375u pd=1.74u m=2
    mn0 (Y A VSS VSS) nfet_01v8_lvt w=(760n) l=150n as=118.275f \
        ad=106.4f ps=1.16625u pd=1.04u m=(1)*(16)
ends INVX16_HS
// End of subcircuit definition.

// Library name: sky130_scl_9T_HS
// Cell name: INVX2_HS
// View name: schematic
subckt INVX2_HS A VDD VSS Y
    mp0 (Y A VDD VDD) pfet_01v8 w=625n l=150n as=295.65f ad=204.4f \
        ps=2.595u pd=1.74u m=1
    mn0 (Y A VSS VSS) nfet_01v8_lvt w=(760n) l=150n as=201.4f \
        ad=106.4f ps=2.05u pd=1.04u m=(1)*(2)
ends INVX2_HS
// End of subcircuit definition.

// Library name: sky130_scl_9T_HS
// Cell name: MX2X1_HS
// View name: schematic
subckt MX2X1_HS A B S0 VDD VSS Y
    mp4 (n0 S0b n6 VDD) pfet_01v8 w=(780n) l=150n as=206.7f ad=206.7f \
        ps=2.09u pd=2.09u m=(1)*(1)
    mp3 (n6 B VDD VDD) pfet_01v8 w=(780n) l=150n as=206.7f \
        ad=206.7f ps=2.09u pd=2.09u m=(1)*(1)
    mp5 (Y n0 VDD VDD) pfet_01v8 w=625n l=150n as=386.9f ad=386.9f \
        ps=3.45u pd=3.45u m=1
    mp0 (S0b S0 VDD VDD) pfet_01v8 w=(780n) l=150n as=206.7f \
        ad=206.7f ps=2.09u pd=2.09u m=(1)*(1)
    mp2 (n0 S0 n4 VDD) pfet_01v8 w=625n l=150n as=206.7f ad=206.7f \
        ps=2.09u pd=2.09u m=1
    mp1 (n4 A VDD VDD) pfet_01v8 w=(780n) l=150n as=206.7f \
        ad=206.7f ps=2.09u pd=2.09u m=(1)*(1)
    mn3 (n5 B VSS VSS) nfet_01v8_lvt w=(425n) l=150n as=112.625f \
        ad=112.625f ps=1.38u pd=1.38u m=(1)*(1)
    mn4 (n0 S0 n5 VSS) nfet_01v8_lvt w=(425n) l=150n as=112.625f \
        ad=112.625f ps=1.38u pd=1.38u m=(1)*(1)
    mn0 (S0b S0 VSS VSS) nfet_01v8_lvt w=(425n) l=150n as=112.625f \
        ad=112.625f ps=1.38u pd=1.38u m=(1)*(1)
    mn1 (n3 A VSS VSS) nfet_01v8_lvt w=(425n) l=150n as=112.625f \
        ad=112.625f ps=1.38u pd=1.38u m=(1)*(1)
    mn5 (Y n0 VSS VSS) nfet_01v8_lvt w=(760n) l=150n as=201.4f \
        ad=201.4f ps=2.05u pd=2.05u m=(1)*(1)
    mn2 (n0 S0b n3 VSS) nfet_01v8_lvt w=(425n) l=150n as=112.625f \
        ad=112.625f ps=1.38u pd=1.38u m=(1)*(1)
ends MX2X1_HS
// End of subcircuit definition.

// Library name: sky130_scl_9T_HS
// Cell name: AOI21X2_HS
// View name: schematic
subckt AOI21X2_HS A0 A1 B0 VDD VSS Y
    mp2 (Y B0 net70 VDD) pfet_01v8 w=1.13u l=150n as=295.65f ad=204.4f \
        ps=2.595u pd=1.74u m=1
    mp1 (net70 A1 VDD VDD) pfet_01v8 w=(1.46u) l=150n as=386.9f \
        ad=204.4f ps=3.45u pd=1.74u m=(1)*(2)
    mp0 (net70 A0 VDD VDD) pfet_01v8 w=(1.46u) l=150n as=386.9f \
        ad=204.4f ps=3.45u pd=1.74u m=(1)*(2)
    mn2 (Y B0 VSS VSS) nfet_01v8_lvt w=(760n) l=150n as=201.4f \
        ad=106.4f ps=2.05u pd=1.04u m=(1)*(2)
    mn0 (net74 A0 VSS VSS) nfet_01v8_lvt w=(760n) l=150n as=201.4f \
        ad=106.4f ps=2.05u pd=1.04u m=(1)*(2)
    mn1 (Y A1 net74 VSS) nfet_01v8_lvt w=(760n) l=150n as=201.4f \
        ad=106.4f ps=2.05u pd=1.04u m=(1)*(2)
ends AOI21X2_HS
// End of subcircuit definition.

// Library name: sky130_scl_9T_HS
// Cell name: NOR4X2_HS
// View name: schematic
subckt NOR4X2_HS A B C D VDD VSS Y
    mp1 (n1 B n0 VDD) pfet_01v8 w=(1.46u) l=150n as=386.9f ad=204.4f \
        ps=3.45u pd=1.74u m=(1)*(2)
    mp3 (Y D n2 VDD) pfet_01v8 w=(1.46u) l=150n as=386.9f ad=204.4f \
        ps=3.45u pd=1.74u m=(1)*(2)
    mp2 (n2 C n1 VDD) pfet_01v8 w=(1.46u) l=150n as=386.9f ad=204.4f \
        ps=3.45u pd=1.74u m=(1)*(2)
    mp0 (n0 A VDD VDD) pfet_01v8 w=1.13u l=150n as=295.65f \
        ad=204.4f ps=2.595u pd=1.74u m=2
    mn2 (Y C VSS VSS) nfet_01v8_lvt w=(760n) l=150n as=201.4f \
        ad=106.4f ps=2.05u pd=1.04u m=(1)*(2)
    mn3 (Y D VSS VSS) nfet_01v8_lvt w=(760n) l=150n as=201.4f \
        ad=106.4f ps=2.05u pd=1.04u m=(1)*(2)
    mn0 (Y A VSS VSS) nfet_01v8_lvt w=(760n) l=150n as=201.4f \
        ad=106.4f ps=2.05u pd=1.04u m=(1)*(2)
    mn1 (Y B VSS VSS) nfet_01v8_lvt w=(760n) l=150n as=201.4f \
        ad=106.4f ps=2.05u pd=1.04u m=(1)*(2)
ends NOR4X2_HS
// End of subcircuit definition.

// Library name: sky130_scl_9T_HS
// Cell name: AOI221X2_HS
// View name: schematic
subckt AOI221X2_HS A0 A1 B0 B1 C0 VDD VSS Y
    mp3 (net104 B1 net103 VDD) pfet_01v8 w=(1.46u) l=150n as=386.9f \
        ad=204.4f ps=3.45u pd=1.74u m=(1)*(2)
    mp2 (net104 B0 net103 VDD) pfet_01v8 w=(1.46u) l=150n as=386.9f \
        ad=204.4f ps=3.45u pd=1.74u m=(1)*(2)
    mp0 (net103 A0 VDD VDD) pfet_01v8 w=(1.46u) l=150n as=386.9f \
        ad=204.4f ps=3.45u pd=1.74u m=(1)*(2)
    mp1 (net103 A1 VDD VDD) pfet_01v8 w=(1.46u) l=150n as=386.9f \
        ad=204.4f ps=3.45u pd=1.74u m=(1)*(2)
    mp4 (Y C0 net104 VDD) pfet_01v8 w=1.13u l=150n as=295.65f \
        ad=204.4f ps=2.595u pd=1.74u m=1
    mn2 (Y B0 net116 VSS) nfet_01v8_lvt w=(760n) l=150n as=201.4f \
        ad=106.4f ps=2.05u pd=1.04u m=(1)*(2)
    mn3 (net116 B1 VSS VSS) nfet_01v8_lvt w=(760n) l=150n \
        as=201.4f ad=106.4f ps=2.05u pd=1.04u m=(1)*(2)
    mn4 (Y C0 VSS VSS) nfet_01v8_lvt w=(760n) l=150n as=201.4f \
        ad=106.4f ps=2.05u pd=1.04u m=(1)*(2)
    mn1 (Y A1 net124 VSS) nfet_01v8_lvt w=(760n) l=150n as=201.4f \
        ad=106.4f ps=2.05u pd=1.04u m=(1)*(2)
    mn0 (net124 A0 VSS VSS) nfet_01v8_lvt w=(760n) l=150n \
        as=201.4f ad=106.4f ps=2.05u pd=1.04u m=(1)*(2)
ends AOI221X2_HS
// End of subcircuit definition.

// Library name: sky130_scl_9T_HS
// Cell name: NOR4X1_HS
// View name: schematic
subckt NOR4X1_HS A B C D VDD VSS Y
    mp1 (n1 B n0 VDD) pfet_01v8 w=(1.46u) l=150n as=386.9f ad=386.9f \
        ps=3.45u pd=3.45u m=(1)*(1)
    mp3 (Y D n2 VDD) pfet_01v8 w=(1.46u) l=150n as=386.9f ad=386.9f \
        ps=3.45u pd=3.45u m=(1)*(1)
    mp2 (n2 C n1 VDD) pfet_01v8 w=(1.46u) l=150n as=386.9f ad=386.9f \
        ps=3.45u pd=3.45u m=(1)*(1)
    mp0 (n0 A VDD VDD) pfet_01v8 w=1.13u l=150n as=386.9f \
        ad=204.4f ps=3.45u pd=1.74u m=1
    mn2 (Y C VSS VSS) nfet_01v8_lvt w=(760n) l=150n as=201.4f \
        ad=201.4f ps=2.05u pd=2.05u m=(1)*(1)
    mn3 (Y D VSS VSS) nfet_01v8_lvt w=(760n) l=150n as=201.4f \
        ad=201.4f ps=2.05u pd=2.05u m=(1)*(1)
    mn0 (Y A VSS VSS) nfet_01v8_lvt w=(760n) l=150n as=201.4f \
        ad=201.4f ps=2.05u pd=2.05u m=(1)*(1)
    mn1 (Y B VSS VSS) nfet_01v8_lvt w=(760n) l=150n as=201.4f \
        ad=201.4f ps=2.05u pd=2.05u m=(1)*(1)
ends NOR4X1_HS
// End of subcircuit definition.

// Library name: sky130_scl_9T_HS
// Cell name: AOI221X1_HS
// View name: schematic
subckt AOI221X1_HS A0 A1 B0 B1 C0 VDD VSS Y
    mp3 (net108 B1 net111 VDD) pfet_01v8 w=(1.46u) l=150n as=386.9f \
        ad=386.9f ps=3.45u pd=3.45u m=(1)*(1)
    mp2 (net108 B0 net111 VDD) pfet_01v8 w=(1.46u) l=150n as=386.9f \
        ad=386.9f ps=3.45u pd=3.45u m=(1)*(1)
    mp0 (net111 A0 VDD VDD) pfet_01v8 w=(1.46u) l=150n as=386.9f \
        ad=386.9f ps=3.45u pd=3.45u m=(1)*(1)
    mp1 (net111 A1 VDD VDD) pfet_01v8 w=(1.46u) l=150n as=386.9f \
        ad=386.9f ps=3.45u pd=3.45u m=(1)*(1)
    mp4 (Y C0 net108 VDD) pfet_01v8 w=1.13u l=150n as=386.9f ad=204.4f \
        ps=3.45u pd=1.74u m=2
    mn2 (net120 B0 VSS VSS) nfet_01v8_lvt w=(760n) l=150n \
        as=201.4f ad=201.4f ps=2.05u pd=2.05u m=(1)*(1)
    mn3 (Y B1 net120 VSS) nfet_01v8_lvt w=(760n) l=150n as=201.4f \
        ad=201.4f ps=2.05u pd=2.05u m=(1)*(1)
    mn4 (Y C0 VSS VSS) nfet_01v8_lvt w=(760n) l=150n as=201.4f \
        ad=201.4f ps=2.05u pd=2.05u m=(1)*(1)
    mn1 (Y A1 net128 VSS) nfet_01v8_lvt w=(760n) l=150n as=201.4f \
        ad=201.4f ps=2.05u pd=2.05u m=(1)*(1)
    mn0 (net128 A0 VSS VSS) nfet_01v8_lvt w=(760n) l=150n \
        as=201.4f ad=201.4f ps=2.05u pd=2.05u m=(1)*(1)
ends AOI221X1_HS
// End of subcircuit definition.

// Library name: sky130_scl_9T_HS
// Cell name: DFFX1_HS
// View name: schematic
subckt DFFX1_HS CK D Q QN VDD VSS
    mp26 (n20 CKbb n22 VDD) pfet_01v8 w=(780n) l=150n as=206.7f \
        ad=206.7f ps=2.09u pd=2.09u m=(1)*(1)
    mp25 (n22 D VDD VDD) pfet_01v8 w=(780n) l=150n as=206.7f \
        ad=206.7f ps=2.09u pd=2.09u m=(1)*(1)
    mp51 (n30 CKbb n36 VDD) pfet_01v8 w=(780n) l=150n as=206.7f \
        ad=206.7f ps=2.09u pd=2.09u m=(1)*(1)
    mp50 (n36 qbint VDD VDD) pfet_01v8 w=(780n) l=150n as=206.7f \
        ad=206.7f ps=2.09u pd=2.09u m=(1)*(1)
    mp57 (QN qint VDD VDD) pfet_01v8 w=(1.46u) l=150n as=386.9f \
        ad=386.9f ps=3.45u pd=3.45u m=(1)*(1)
    mp55 (Q qbint VDD VDD) pfet_01v8 w=625n l=150n as=386.9f \
        ad=386.9f ps=3.45u pd=3.45u m=1
    mp35 (n26 mout VDD VDD) pfet_01v8 w=(780n) l=150n as=206.7f \
        ad=206.7f ps=2.09u pd=2.09u m=(1)*(1)
    mp36 (n20 CKb n26 VDD) pfet_01v8 w=625n l=150n as=206.7f ad=109.2f \
        ps=2.09u pd=1.06u m=1
    mp20 (CKb CK VDD VDD) pfet_01v8 w=(780n) l=150n as=206.7f \
        ad=206.7f ps=2.09u pd=2.09u m=(1)*(1)
    mp45 (qbint n30 VDD VDD) pfet_01v8 w=(780n) l=150n as=206.7f \
        ad=206.7f ps=2.09u pd=2.09u m=(1)*(1)
    mp56 (qint qbint VDD VDD) pfet_01v8 w=(780n) l=150n as=206.7f \
        ad=206.7f ps=2.09u pd=2.09u m=(1)*(1)
    mp21 (CKbb CKb VDD VDD) pfet_01v8 w=(780n) l=150n as=206.7f \
        ad=206.7f ps=2.09u pd=2.09u m=(1)*(1)
    mp40 (n30 CKb mout VDD) pfet_01v8 w=(780n) l=150n as=206.7f \
        ad=206.7f ps=2.09u pd=2.09u m=(1)*(1)
    mp30 (mout n20 VDD VDD) pfet_01v8 w=(780n) l=150n as=206.7f \
        ad=206.7f ps=2.09u pd=2.09u m=(1)*(1)
    mn26 (n20 CKb n21 VSS) nfet_01v8_lvt w=(425n) l=150n as=112.625f \
        ad=112.625f ps=1.38u pd=1.38u m=(1)*(1)
    mn25 (n21 D VSS VSS) nfet_01v8_lvt w=(425n) l=150n as=112.625f \
        ad=112.625f ps=1.38u pd=1.38u m=(1)*(1)
    mn57 (QN qint VSS VSS) nfet_01v8_lvt w=(760n) l=150n as=201.4f \
        ad=201.4f ps=2.05u pd=2.05u m=(1)*(1)
    mn55 (Q qbint VSS VSS) nfet_01v8_lvt w=(760n) l=150n as=201.4f \
        ad=201.4f ps=2.05u pd=2.05u m=(1)*(1)
    mn50 (n35 qbint VSS VSS) nfet_01v8_lvt w=(425n) l=150n \
        as=112.625f ad=112.625f ps=1.38u pd=1.38u m=(1)*(1)
    mn51 (n30 CKb n35 VSS) nfet_01v8_lvt w=(425n) l=150n as=112.625f \
        ad=112.625f ps=1.38u pd=1.38u m=(1)*(1)
    mn35 (n25 mout VSS VSS) nfet_01v8_lvt w=(425n) l=150n \
        as=112.625f ad=112.625f ps=1.38u pd=1.38u m=(1)*(1)
    mn36 (n20 CKbb n25 VSS) nfet_01v8_lvt w=(425n) l=150n as=112.625f \
        ad=112.625f ps=1.38u pd=1.38u m=(1)*(1)
    mn20 (CKb CK VSS VSS) nfet_01v8_lvt w=(425n) l=150n \
        as=112.625f ad=112.625f ps=1.38u pd=1.38u m=(1)*(1)
    mn45 (qbint n30 VSS VSS) nfet_01v8_lvt w=(425n) l=150n \
        as=112.625f ad=112.625f ps=1.38u pd=1.38u m=(1)*(1)
    mn56 (qint qbint VSS VSS) nfet_01v8_lvt w=(425n) l=150n \
        as=112.625f ad=112.625f ps=1.38u pd=1.38u m=(1)*(1)
    mn21 (CKbb CKb VSS VSS) nfet_01v8_lvt w=(425n) l=150n \
        as=112.625f ad=112.625f ps=1.38u pd=1.38u m=(1)*(1)
    mn30 (mout n20 VSS VSS) nfet_01v8_lvt w=(425n) l=150n \
        as=112.625f ad=112.625f ps=1.38u pd=1.38u m=(1)*(1)
    mn40 (n30 CKbb mout VSS) nfet_01v8_lvt w=(425n) l=150n as=112.625f \
        ad=112.625f ps=1.38u pd=1.38u m=(1)*(1)
ends DFFX1_HS
// End of subcircuit definition.

// Library name: sky130_scl_9T_HS
// Cell name: DFFRX4_HS
// View name: schematic
subckt DFFRX4_HS CK D Q QN RN VDD VSS
    mp26 (n20 CKbb n22 VDD) pfet_01v8 w=(780n) l=150n as=206.7f \
        ad=206.7f ps=2.09u pd=2.09u m=(1)*(1)
    mp25 (n22 D VDD VDD) pfet_01v8 w=(780n) l=150n as=206.7f \
        ad=206.7f ps=2.09u pd=2.09u m=(1)*(1)
    mp51 (n30 CKbb n41 VDD) pfet_01v8 w=(780n) l=150n as=206.7f \
        ad=206.7f ps=2.09u pd=2.09u m=(1)*(1)
    mp50 (n41 qbint VDD VDD) pfet_01v8 w=(780n) l=150n as=206.7f \
        ad=206.7f ps=2.09u pd=2.09u m=(1)*(1)
    mp57 (QN qint VDD VDD) pfet_01v8 w=(1.46u) l=150n as=295.65f \
        ad=204.4f ps=2.595u pd=1.74u m=(1)*(4)
    mp55 (Q qbint VDD VDD) pfet_01v8 w=905n l=150n as=295.65f \
        ad=204.4f ps=2.595u pd=1.74u m=2
    mp20 (CKb CK VDD VDD) pfet_01v8 w=(780n) l=150n as=206.7f \
        ad=206.7f ps=2.09u pd=2.09u m=(1)*(1)
    mp21 (CKbb CKb VDD VDD) pfet_01v8 w=(780n) l=150n as=206.7f \
        ad=206.7f ps=2.09u pd=2.09u m=(1)*(1)
    mp36 (n26 mout VDD VDD) pfet_01v8 w=(780n) l=150n as=206.7f \
        ad=206.7f ps=2.09u pd=2.09u m=(1)*(1)
    mp30 (mout n20 VDD VDD) pfet_01v8 w=(780n) l=150n as=206.7f \
        ad=206.7f ps=2.09u pd=2.09u m=(1)*(1)
    mp35 (n26 RN VDD VDD) pfet_01v8 w=(780n) l=150n as=206.7f \
        ad=206.7f ps=2.09u pd=2.09u m=(1)*(1)
    mp37 (n20 CKb n26 VDD) pfet_01v8 w=905n l=150n as=206.7f ad=206.7f \
        ps=2.09u pd=2.09u m=2
    mp46 (qbint n30 VDD VDD) pfet_01v8 w=(1.25u) l=150n as=331.25f \
        ad=175f ps=3.03u pd=1.53u m=(1)*(2)
    mp40 (n30 CKb mout VDD) pfet_01v8 w=(780n) l=150n as=206.7f \
        ad=206.7f ps=2.09u pd=2.09u m=(1)*(1)
    mp45 (qbint RN VDD VDD) pfet_01v8 w=905n l=150n as=253.125f \
        ad=175f ps=2.28u pd=1.53u m=2
    mp56 (qint qbint VDD VDD) pfet_01v8 w=905n l=150n as=386.9f \
        ad=386.9f ps=3.45u pd=3.45u m=2
    mn36 (n25 mout n27 VSS) nfet_01v8_lvt w=(425n) l=150n as=112.625f \
        ad=112.625f ps=1.38u pd=1.38u m=(1)*(1)
    mn35 (n27 RN VSS VSS) nfet_01v8_lvt w=(425n) l=150n \
        as=112.625f ad=112.625f ps=1.38u pd=1.38u m=(1)*(1)
    mn37 (n20 CKbb n25 VSS) nfet_01v8_lvt w=(425n) l=150n as=112.625f \
        ad=112.625f ps=1.38u pd=1.38u m=(1)*(1)
    mn26 (n20 CKb n21 VSS) nfet_01v8_lvt w=(425n) l=150n as=112.625f \
        ad=112.625f ps=1.38u pd=1.38u m=(1)*(1)
    mn25 (n21 D VSS VSS) nfet_01v8_lvt w=(425n) l=150n as=112.625f \
        ad=112.625f ps=1.38u pd=1.38u m=(1)*(1)
    mn57 (QN qint VSS VSS) nfet_01v8_lvt w=(760n) l=150n as=153.9f \
        ad=106.4f ps=1.545u pd=1.04u m=(1)*(4)
    mn55 (Q qbint VSS VSS) nfet_01v8_lvt w=(760n) l=150n as=153.9f \
        ad=106.4f ps=1.545u pd=1.04u m=(1)*(4)
    mn45 (n35 RN VSS VSS) nfet_01v8_lvt w=(600n) l=150n as=159f \
        ad=84f ps=1.73u pd=880n m=(1)*(2)
    mn46 (qbint n30 n35 VSS) nfet_01v8_lvt w=(600n) l=150n as=159f \
        ad=84f ps=1.73u pd=880n m=(1)*(2)
    mn51 (n30 CKb n40 VSS) nfet_01v8_lvt w=(425n) l=150n as=112.625f \
        ad=112.625f ps=1.38u pd=1.38u m=(1)*(1)
    mn50 (n40 qbint VSS VSS) nfet_01v8_lvt w=(425n) l=150n \
        as=112.625f ad=112.625f ps=1.38u pd=1.38u m=(1)*(1)
    mn21 (CKbb CKb VSS VSS) nfet_01v8_lvt w=(425n) l=150n \
        as=112.625f ad=112.625f ps=1.38u pd=1.38u m=(1)*(1)
    mn40 (n30 CKbb mout VSS) nfet_01v8_lvt w=(425n) l=150n as=112.625f \
        ad=112.625f ps=1.38u pd=1.38u m=(1)*(1)
    mn30 (mout n20 VSS VSS) nfet_01v8_lvt w=(425n) l=150n \
        as=112.625f ad=112.625f ps=1.38u pd=1.38u m=(1)*(1)
    mn56 (qint qbint VSS VSS) nfet_01v8_lvt w=(760n) l=150n \
        as=201.4f ad=201.4f ps=2.05u pd=2.05u m=(1)*(1)
    mn20 (CKb CK VSS VSS) nfet_01v8_lvt w=(425n) l=150n \
        as=112.625f ad=112.625f ps=1.38u pd=1.38u m=(1)*(1)
ends DFFRX4_HS
// End of subcircuit definition.

// Library name: sky130_scl_9T_HS
// Cell name: AOI21X1_HS
// View name: schematic
subckt AOI21X1_HS A0 A1 B0 VDD VSS Y
    mp2 (Y B0 net62 VDD) pfet_01v8 w=625n l=150n as=386.9f ad=386.9f \
        ps=3.45u pd=3.45u m=1
    mp1 (net62 A1 VDD VDD) pfet_01v8 w=(1.46u) l=150n as=386.9f \
        ad=386.9f ps=3.45u pd=3.45u m=(1)*(1)
    mp0 (net62 A0 VDD VDD) pfet_01v8 w=(1.46u) l=150n as=386.9f \
        ad=386.9f ps=3.45u pd=3.45u m=(1)*(1)
    mn2 (Y B0 VSS VSS) nfet_01v8_lvt w=(760n) l=150n as=201.4f \
        ad=201.4f ps=2.05u pd=2.05u m=(1)*(1)
    mn0 (net78 A0 VSS VSS) nfet_01v8_lvt w=(760n) l=150n as=201.4f \
        ad=201.4f ps=2.05u pd=2.05u m=(1)*(1)
    mn1 (Y A1 net78 VSS) nfet_01v8_lvt w=(760n) l=150n as=201.4f \
        ad=201.4f ps=2.05u pd=2.05u m=(1)*(1)
ends AOI21X1_HS
// End of subcircuit definition.

// Library name: sky130_scl_9T_HS
// Cell name: INVX1_HS
// View name: schematic
subckt INVX1_HS A VDD VSS Y
    mn0 (Y A VSS VSS) nfet_01v8_lvt w=760n l=150n as=201.4f \
        ad=201.4f ps=2.05u pd=2.05u m=1
    mp0 (Y A VDD VDD) pfet_01v8 w=760n l=150n as=204.4f ad=386.9f \
        ps=1.74u pd=3.45u m=1
ends INVX1_HS
// End of subcircuit definition.

// Library name: sky130_scl_9T_HS
// Cell name: OR4X1_HS
// View name: schematic
subckt OR4X1_HS A B C D VDD VSS Y
    mp4 (Y n0 VDD VDD) pfet_01v8 w=(1.46u) l=150n as=386.9f \
        ad=386.9f ps=3.45u pd=3.45u m=(1)*(1)
    mp0 (n1 A VDD VDD) pfet_01v8 w=(780n) l=150n as=206.7f \
        ad=206.7f ps=2.09u pd=2.09u m=(1)*(1)
    mp3 (n0 D n3 VDD) pfet_01v8 w=(780n) l=150n as=206.7f ad=206.7f \
        ps=2.09u pd=2.09u m=(1)*(1)
    mp1 (n2 B n1 VDD) pfet_01v8 w=(780n) l=150n as=206.7f ad=206.7f \
        ps=2.09u pd=2.09u m=(1)*(1)
    mp2 (n3 C n2 VDD) pfet_01v8 w=(780n) l=150n as=206.7f ad=206.7f \
        ps=2.09u pd=2.09u m=(1)*(1)
    mn4 (Y n0 VSS VSS) nfet_01v8_lvt w=(760n) l=150n as=201.4f \
        ad=201.4f ps=2.05u pd=2.05u m=(1)*(1)
    mn3 (n0 D VSS VSS) nfet_01v8_lvt w=(425n) l=150n as=112.625f \
        ad=112.625f ps=1.38u pd=1.38u m=(1)*(1)
    mn0 (n0 A VSS VSS) nfet_01v8_lvt w=(425n) l=150n as=112.625f \
        ad=112.625f ps=1.38u pd=1.38u m=(1)*(1)
    mn2 (n0 C VSS VSS) nfet_01v8_lvt w=(425n) l=150n as=112.625f \
        ad=112.625f ps=1.38u pd=1.38u m=(1)*(1)
    mn1 (n0 B VSS VSS) nfet_01v8_lvt w=(425n) l=150n as=112.625f \
        ad=112.625f ps=1.38u pd=1.38u m=(1)*(1)
ends OR4X1_HS
// End of subcircuit definition.

// Library name: sky130_scl_9T_HS
// Cell name: OAI221X1_HS
// View name: schematic
subckt OAI221X1_HS A0 A1 B0 B1 C0 VDD VSS Y
    mp3 (Y B1 net123 VDD) pfet_01v8 w=(1.46u) l=150n as=386.9f \
        ad=386.9f ps=3.45u pd=3.45u m=(1)*(1)
    mp0 (net115 A0 VDD VDD) pfet_01v8 w=1.13u l=150n as=386.9f \
        ad=204.4f ps=3.45u pd=1.74u m=1
    mp1 (Y A1 net115 VDD) pfet_01v8 w=(1.46u) l=150n as=386.9f \
        ad=386.9f ps=3.45u pd=3.45u m=(1)*(1)
    mp2 (net123 B0 VDD VDD) pfet_01v8 w=(1.46u) l=150n as=386.9f \
        ad=386.9f ps=3.45u pd=3.45u m=(1)*(1)
    mp4 (Y C0 VDD VDD) pfet_01v8 w=(1.46u) l=150n as=386.9f \
        ad=386.9f ps=3.45u pd=3.45u m=(1)*(1)
    mn4 (Y C0 net132 VSS) nfet_01v8_lvt w=(760n) l=150n as=201.4f \
        ad=201.4f ps=2.05u pd=2.05u m=(1)*(1)
    mn0 (net128 A0 VSS VSS) nfet_01v8_lvt w=(760n) l=150n \
        as=201.4f ad=201.4f ps=2.05u pd=2.05u m=(1)*(1)
    mn1 (net128 A1 VSS VSS) nfet_01v8_lvt w=(760n) l=150n \
        as=201.4f ad=201.4f ps=2.05u pd=2.05u m=(1)*(1)
    mn2 (net132 B0 net128 VSS) nfet_01v8_lvt w=(760n) l=150n as=201.4f \
        ad=201.4f ps=2.05u pd=2.05u m=(1)*(1)
    mn3 (net132 B1 net128 VSS) nfet_01v8_lvt w=(760n) l=150n as=201.4f \
        ad=201.4f ps=2.05u pd=2.05u m=(1)*(1)
ends OAI221X1_HS
// End of subcircuit definition.

// Library name: sky130_scl_9T_HS
// Cell name: DLY4X4_HS
// View name: schematic
subckt DLY4X4_HS A VDD VSS Y
    mp8 (net369 VSS net300 VDD) pfet_01v8 w=(780n) l=150n \
        as=206.7f ad=206.7f ps=2.09u pd=2.09u m=(1)*(1)
    mp7 (net300 net377 VDD VDD) pfet_01v8 w=(780n) l=150n \
        as=206.7f ad=206.7f ps=2.09u pd=2.09u m=(1)*(1)
    mp9 (net292 net369 VDD VDD) pfet_01v8 w=(780n) l=150n \
        as=206.7f ad=206.7f ps=2.09u pd=2.09u m=(1)*(1)
    mp10 (net361 VSS net292 VDD) pfet_01v8 w=(780n) l=150n \
        as=206.7f ad=206.7f ps=2.09u pd=2.09u m=(1)*(1)
    mp6 (net377 VSS net308 VDD) pfet_01v8 w=(780n) l=150n \
        as=206.7f ad=206.7f ps=2.09u pd=2.09u m=(1)*(1)
    mp5 (net308 net385 VDD VDD) pfet_01v8 w=(780n) l=150n \
        as=206.7f ad=206.7f ps=2.09u pd=2.09u m=(1)*(1)
    mp4 (net385 VSS net316 VDD) pfet_01v8 w=(780n) l=150n \
        as=206.7f ad=206.7f ps=2.09u pd=2.09u m=(1)*(1)
    mp3 (net316 net393 VDD VDD) pfet_01v8 w=(780n) l=150n \
        as=206.7f ad=206.7f ps=2.09u pd=2.09u m=(1)*(1)
    mp2 (net393 VSS net324 VDD) pfet_01v8 w=(780n) l=150n \
        as=206.7f ad=206.7f ps=2.09u pd=2.09u m=(1)*(1)
    mp1 (net324 net397 VDD VDD) pfet_01v8 w=(780n) l=150n \
        as=206.7f ad=206.7f ps=2.09u pd=2.09u m=(1)*(1)
    mp11 (net284 net361 VDD VDD) pfet_01v8 w=(780n) l=150n \
        as=206.7f ad=206.7f ps=2.09u pd=2.09u m=(1)*(1)
    mp12 (net353 VSS net284 VDD) pfet_01v8 w=(780n) l=150n \
        as=206.7f ad=206.7f ps=2.09u pd=2.09u m=(1)*(1)
    mp13 (net276 net353 VDD VDD) pfet_01v8 w=(780n) l=150n \
        as=206.7f ad=206.7f ps=2.09u pd=2.09u m=(1)*(1)
    mp14 (net345 VSS net276 VDD) pfet_01v8 w=(780n) l=150n \
        as=206.7f ad=206.7f ps=2.09u pd=2.09u m=(1)*(1)
    mp15 (net333 net345 VDD VDD) pfet_01v8 w=(1.46u) l=150n \
        as=386.9f ad=386.9f ps=3.45u pd=3.45u m=(1)*(1)
    mp0 (net397 A VDD VDD) pfet_01v8 w=(780n) l=150n as=206.7f \
        ad=206.7f ps=2.09u pd=2.09u m=(1)*(1)
    mp16 (Y net333 VDD VDD) pfet_01v8 w=(1.46u) l=150n as=295.65f \
        ad=204.4f ps=2.595u pd=1.74u m=(1)*(4)
    mn14 (net345 VDD net341 VSS) nfet_01v8_lvt w=(425n) l=150n \
        as=112.625f ad=112.625f ps=1.38u pd=1.38u m=(1)*(1)
    mn13 (net341 net353 VSS VSS) nfet_01v8_lvt w=(425n) l=150n \
        as=112.625f ad=112.625f ps=1.38u pd=1.38u m=(1)*(1)
    mn12 (net353 VDD net349 VSS) nfet_01v8_lvt w=(425n) l=150n \
        as=112.625f ad=112.625f ps=1.38u pd=1.38u m=(1)*(1)
    mn11 (net349 net361 VSS VSS) nfet_01v8_lvt w=(425n) l=150n \
        as=112.625f ad=112.625f ps=1.38u pd=1.38u m=(1)*(1)
    mn10 (net361 VDD net357 VSS) nfet_01v8_lvt w=(425n) l=150n \
        as=112.625f ad=112.625f ps=1.38u pd=1.38u m=(1)*(1)
    mn9 (net357 net369 VSS VSS) nfet_01v8_lvt w=(425n) l=150n \
        as=112.625f ad=112.625f ps=1.38u pd=1.38u m=(1)*(1)
    mn15 (net333 net345 VSS VSS) nfet_01v8_lvt w=(760n) l=150n \
        as=201.4f ad=201.4f ps=2.05u pd=2.05u m=(1)*(1)
    mn6 (net377 VDD net373 VSS) nfet_01v8_lvt w=(425n) l=150n \
        as=112.625f ad=112.625f ps=1.38u pd=1.38u m=(1)*(1)
    mn0 (net397 A VSS VSS) nfet_01v8_lvt w=(425n) l=150n \
        as=112.625f ad=112.625f ps=1.38u pd=1.38u m=(1)*(1)
    mn4 (net385 VDD net381 VSS) nfet_01v8_lvt w=(425n) l=150n \
        as=112.625f ad=112.625f ps=1.38u pd=1.38u m=(1)*(1)
    mn1 (net389 net397 VSS VSS) nfet_01v8_lvt w=(425n) l=150n \
        as=112.625f ad=112.625f ps=1.38u pd=1.38u m=(1)*(1)
    mn7 (net365 net377 VSS VSS) nfet_01v8_lvt w=(425n) l=150n \
        as=112.625f ad=112.625f ps=1.38u pd=1.38u m=(1)*(1)
    mn16 (Y net333 VSS VSS) nfet_01v8_lvt w=(760n) l=150n \
        as=153.9f ad=106.4f ps=1.545u pd=1.04u m=(1)*(4)
    mn3 (net381 net393 VSS VSS) nfet_01v8_lvt w=(425n) l=150n \
        as=112.625f ad=112.625f ps=1.38u pd=1.38u m=(1)*(1)
    mn2 (net393 VDD net389 VSS) nfet_01v8_lvt w=(425n) l=150n \
        as=112.625f ad=112.625f ps=1.38u pd=1.38u m=(1)*(1)
    mn8 (net369 VDD net365 VSS) nfet_01v8_lvt w=(425n) l=150n \
        as=112.625f ad=112.625f ps=1.38u pd=1.38u m=(1)*(1)
    mn5 (net373 net385 VSS VSS) nfet_01v8_lvt w=(425n) l=150n \
        as=112.625f ad=112.625f ps=1.38u pd=1.38u m=(1)*(1)
ends DLY4X4_HS
// End of subcircuit definition.

// Library name: sky130_scl_9T_HS
// Cell name: AND3X1_HS
// View name: schematic
subckt AND3X1_HS A B C VDD VSS Y
    mp1 (net086 B VDD VDD) pfet_01v8 w=(780n) l=150n as=206.7f \
        ad=206.7f ps=2.09u pd=2.09u m=(1)*(1)
    mp2 (net086 C VDD VDD) pfet_01v8 w=(780n) l=150n as=206.7f \
        ad=206.7f ps=2.09u pd=2.09u m=(1)*(1)
    mp0 (net086 A VDD VDD) pfet_01v8 w=625n l=150n as=206.7f \
        ad=206.7f ps=2.09u pd=2.09u m=1
    mp3 (Y net086 VDD VDD) pfet_01v8 w=625n l=150n as=386.9f \
        ad=204.4f ps=3.45u pd=1.74u m=1
    mn3 (Y net086 VSS VSS) nfet_01v8_lvt w=(760n) l=150n as=201.4f \
        ad=201.4f ps=2.05u pd=2.05u m=(1)*(1)
    mn1 (net0106 B net0102 VSS) nfet_01v8_lvt w=(425n) l=150n \
        as=112.625f ad=112.625f ps=1.38u pd=1.38u m=(1)*(1)
    mn0 (net0102 A VSS VSS) nfet_01v8_lvt w=(425n) l=150n \
        as=112.625f ad=112.625f ps=1.38u pd=1.38u m=(1)*(1)
    mn2 (net086 C net0106 VSS) nfet_01v8_lvt w=(425n) l=150n \
        as=112.625f ad=112.625f ps=1.38u pd=1.38u m=(1)*(1)
ends AND3X1_HS
// End of subcircuit definition.

// Library name: sky130_scl_9T_HS
// Cell name: CLKXOR2X1_HS
// View name: schematic
subckt CLKXOR2X1_HS A B VDD VSS Y
    mp3 (n0 n2 net130 VDD) pfet_01v8 w=(780n) l=150n as=206.7f \
        ad=206.7f ps=2.09u pd=2.09u m=(1)*(1)
    mp1 (n2 B VDD VDD) pfet_01v8 w=(780n) l=150n as=206.7f \
        ad=206.7f ps=2.09u pd=2.09u m=(1)*(1)
    mp4 (n0 B n1 VDD) pfet_01v8 w=(780n) l=150n as=206.7f ad=206.7f \
        ps=2.09u pd=2.09u m=(1)*(1)
    mp0 (n1 A VDD VDD) pfet_01v8 w=(780n) l=150n as=206.7f \
        ad=206.7f ps=2.09u pd=2.09u m=(1)*(1)
    mp5 (Y n0 VDD VDD) pfet_01v8 w=(1.46u) l=150n as=386.9f \
        ad=386.9f ps=3.45u pd=3.45u m=(1)*(1)
    mp2 (net130 n1 VDD VDD) pfet_01v8 w=(780n) l=150n as=206.7f \
        ad=206.7f ps=2.09u pd=2.09u m=(1)*(1)
    mn1 (n2 B VSS VSS) nfet_01v8_lvt w=(425n) l=150n as=112.625f \
        ad=112.625f ps=1.38u pd=1.38u m=(1)*(1)
    mn0 (n1 A VSS VSS) nfet_01v8_lvt w=(425n) l=150n as=112.625f \
        ad=112.625f ps=1.38u pd=1.38u m=(1)*(1)
    mn5 (Y n0 VSS VSS) nfet_01v8_lvt w=(760n) l=150n as=201.4f \
        ad=201.4f ps=2.05u pd=2.05u m=(1)*(1)
    mn3 (n0 B net139 VSS) nfet_01v8_lvt w=(425n) l=150n as=112.625f \
        ad=112.625f ps=1.38u pd=1.38u m=(1)*(1)
    mn4 (n0 n2 n1 VSS) nfet_01v8_lvt w=(425n) l=150n as=112.625f \
        ad=112.625f ps=1.38u pd=1.38u m=(1)*(1)
    mn2 (net139 n1 VSS VSS) nfet_01v8_lvt w=(425n) l=150n \
        as=112.625f ad=112.625f ps=1.38u pd=1.38u m=(1)*(1)
ends CLKXOR2X1_HS
// End of subcircuit definition.

// Library name: sky130_scl_9T_HS
// Cell name: MX2X4_HS
// View name: schematic
subckt MX2X4_HS A B S0 VDD VSS Y
    mp4 (n0 S0b n6 VDD) pfet_01v8 w=(1.25u) l=150n as=331.25f \
        ad=331.25f ps=3.03u pd=3.03u m=(1)*(1)
    mp3 (n6 B VDD VDD) pfet_01v8 w=(1.25u) l=150n as=331.25f \
        ad=331.25f ps=3.03u pd=3.03u m=(1)*(1)
    mp5 (Y n0 VDD VDD) pfet_01v8 w=625n l=150n as=250.025f \
        ad=204.4f ps=2.1675u pd=1.74u m=1
    mp0 (S0b S0 VDD VDD) pfet_01v8 w=625n l=150n as=206.7f \
        ad=206.7f ps=2.09u pd=2.09u m=1
    mp2 (n0 S0 n4 VDD) pfet_01v8 w=625n l=150n as=175f ad=331.25f \
        ps=1.53u pd=3.03u m=1
    mp1 (n4 A VDD VDD) pfet_01v8 w=(1.25u) l=150n as=331.25f \
        ad=331.25f ps=3.03u pd=3.03u m=(1)*(1)
    mn3 (n5 B VSS VSS) nfet_01v8_lvt w=(600n) l=150n as=159f \
        ad=159f ps=1.73u pd=1.73u m=(1)*(1)
    mn4 (n0 S0 n5 VSS) nfet_01v8_lvt w=(600n) l=150n as=159f ad=159f \
        ps=1.73u pd=1.73u m=(1)*(1)
    mn0 (S0b S0 VSS VSS) nfet_01v8_lvt w=(425n) l=150n as=112.625f \
        ad=112.625f ps=1.38u pd=1.38u m=(1)*(1)
    mn1 (n3 A VSS VSS) nfet_01v8_lvt w=(600n) l=150n as=159f \
        ad=159f ps=1.73u pd=1.73u m=(1)*(1)
    mn5 (Y n0 VSS VSS) nfet_01v8_lvt w=(760n) l=150n as=153.9f \
        ad=106.4f ps=1.545u pd=1.04u m=(1)*(4)
    mn2 (n0 S0b n3 VSS) nfet_01v8_lvt w=(600n) l=150n as=159f ad=159f \
        ps=1.73u pd=1.73u m=(1)*(1)
ends MX2X4_HS
// End of subcircuit definition.

// Library name: sky130_scl_9T_HS