*
*|DSPF 1.5
*
*|DATE "Fri Feb 28 14:17:09 2025"
*|VENDOR "Cadence Design Systems"
*|PROGRAM "Cadence Quantus Extraction"
*|VERSION "22.1.0-p089 Linux 64 bit - (Thu Jan 19 11:47:08 PST 2023)"
*|DESIGN "ADDFX1_LP"
*|DIVIDER /
*|DELIMITER #
*|DeviceFingerDelim "@"
*|BUSBIT []
*|GLOBAL_TEMPERATURE 25
*|OPERATING_TEMPERATURE 25
** QRC_TECH_DIR /vols/wfo_devel/projects/reference_SKY130/tech/sky130_release_0.0.4/quantus/extraction/typical 
** HIERARCHICAL_SPLIT_PINS_DELIMITER '%'
** caps2d version: 10
*
.SUBCKT  ADDFX1_LP A B CI CO S VDD VSS
*
*Net Section
*
*|GROUND_NET VSS
*
*|NET 26 1.07267e-16
*|I (MX64/M0#s MX64/M0 s X 0 0.8295 0.8000)
*|I (MX58/M0#d MX58/M0 d X 0 0.5505 0.8000)
*|S (26 0.6900 0.8000)
CN1 26 VSS 2.0615e-17
CN2 26 VSS#23 7.97535e-18
CN3 26 MX58/M0#s 2.38002e-17
CN4 26 VSS#10 6.01458e-18
RmwN223 MX64/M0#s 26 0.001000 $W=1000000
RmwN224 MX58/M0#d 26 0.001000 $W=1000000
*
*|NET 28 1.41434e-16
*|I (MX61/M0#s MX61/M0 s X 0 0.8295 3.2800)
*|I (MX53/M0#d MX53/M0 d X 0 0.5505 3.2800)
*|S (28 0.6900 3.2350)
CN5 28 VSS 9.27562e-18
RmwN225 MX61/M0#s 28 0.001000 $W=1000000
RmwN226 MX53/M0#d 28 0.001000 $W=1000000
*
*|NET 30 1.21563e-16
*|I (MX42/M0#s MX42/M0 s X 0 4.7895 0.8000)
*|I (MX41/M0#d MX41/M0 d X 0 4.5105 0.8000)
*|S (30 4.6500 0.8000)
CN6 30 VSS 1.22171e-17
CN7 30 34 1.93579e-17
CN8 30 VSS#5 6.01954e-18
CN9 30 VSS#23 5.18588e-18
CN10 30 MX63/M0#s 1.93703e-17
RmwN227 MX42/M0#s 30 0.001000 $W=1000000
RmwN228 MX41/M0#d 30 0.001000 $W=1000000
*
*|NET 32 1.47806e-16
*|I (MX51/M0#s MX51/M0 s X 0 4.7895 3.2800)
*|I (MX50/M0#d MX50/M0 d X 0 4.5105 3.2800)
*|S (32 4.6500 3.2350)
CN11 32 VSS 1.01915e-17
CN12 32 36 3.0929e-17
RmwN229 MX51/M0#s 32 0.001000 $W=1000000
RmwN230 MX50/M0#d 32 0.001000 $W=1000000
*
*|NET 1 3.66837e-16
*|I (MX67/M0#d MX67/M0 d X 0 1.6895 3.2800)
*|I (MX52/M0#s MX52/M0 s X 0 1.4105 3.2800)
*|I (MX47/M0#d MX47/M0 d X 0 2.2705 3.2800)
*|S (1 1.5500 3.2800)
*|S (1#2 1.5500 3.2800)
*|S (1#3 1.5500 3.2350)
*|S (1#5 2.4100 3.2800)
*|S (1#6 2.4100 3.2350)
*|S (1#7 2.4100 3.2350)
*|S (1#8 1.5500 3.2350)
CH1 1#8 VSS 3.51928e-18
CH2 1#7 VSS 3.66173e-18
CH3 1#3 VSS 2.35249e-18
CH4 1#6 VSS 2.93744e-18
CH5 1#7 4#29 3.89381e-18
CH6 1#3 4#23 2.41785e-17
CH7 1#3 4#31 4.79948e-18
CH8 1#8 4#23 2.60058e-18
CH9 1#8 4#31 2.19399e-17
CH10 1#8 4#29 3.90708e-18
CH11 1#6 2#3 1.92968e-17
CH12 1#7 2#3 2.94796e-18
CH13 1#6 2#12 2.94796e-18
CH14 1#7 2#12 1.55357e-17
RfH132 1#2 1#3 3.388236 $L=0.045 $W=0.17
RfH133 1#5 1#6 3.388236 $L=0.045 $W=0.17
ReH134 1#7 1#8 0.632353 $L=0.86 $W=0.17
Rh_2_H135 1 1#2 15.000000 $A=0.0289
Rh_2_H136 MX47/M0#d 1#5 15.000000 $A=0.0289
RjH137 1#6 1#7 152.000000 $A=0.0289
RjH138 1#3 1#8 152.000000 $A=0.0289
RmwH139 MX67/M0#d 1 0.001000 $W=1000000
RmwH140 MX52/M0#s 1 0.001000 $W=1000000
*
*|NET S 5.30136e-16
*|P (S X 0 7.3750 1.8550)
*|I (MX60/M0#d MX60/M0 d X 0 7.1805 0.8000)
*|I (MX46/M0#d MX46/M0 d X 0 7.1805 3.2400)
*|S (S#2 7.3200 3.2400)
*|S (S#3 7.3200 3.2050)
*|S (S#5 7.3200 0.8000)
*|S (S#6 7.3200 0.7950)
*|S (S#7 7.3200 0.7950)
*|S (S#8 7.3200 3.2050)
CE1 S#8 VSS 1.60197e-18
CE2 S#7 VSS 4.3196e-17
CE3 S#6 VSS 3.88139e-18
CE4 S#3 VSS 1.12171e-18
CE5 S VSS 3.18325e-17
CE6 S#3 6#14 1.21108e-18
CE7 S 6#14 3.57853e-17
CE8 S#8 6 4.09566e-18
CE9 S#6 MX60/M0#g 9.4895e-18
CE10 S#6 6#14 5.00077e-18
CE11 S#7 6#15 3.40021e-18
CE12 S#7 MX60/M0#g 2.79626e-18
CE13 S#3 6 1.13878e-17
CE14 S#3 MX49/M0#g 2.30855e-18
CE15 S 4#27 8.36654e-18
CE16 S#6 VSS#22 5.18149e-18
CE17 S#7 VSS#2 6.71157e-18
CE18 S#6 VSS#2 6.01853e-18
CE19 S#6 MX60/M0#s 1.87344e-17
CE20 S#7 VSS#22 2.54092e-17
CE21 S#7 MX60/M0#s 8.30893e-18
CE22 S#3 MX49/M0#s 3.06268e-17
CE23 S#8 VDD#22 2.71304e-17
CE24 S#3 VDD#22 5.70228e-18
CE25 S#8 MX49/M0#s 1.21231e-17
CE26 S#8 VDD#2 7.24614e-18
CE27 S#8 VDD 5.75858e-17
CE28 S#3 VDD#2 6.0733e-18
CE29 S#3 VDD 8.89691e-18
CE30 S VDD 1.61127e-17
RfE70 S#2 S#3 2.635294 $L=0.035 $W=0.17
RfE71 S#5 S#6 0.376471 $L=0.005 $W=0.17
ReE72 S S#7 0.503500 $L=1.06 $W=0.26
ReE73 S S#8 0.635332 $L=1.35 $W=0.26
RhE74 MX60/M0#d S#5 15.000000 $A=0.0289
Rh_2_E75 MX46/M0#d S#2 15.000000 $A=0.0289
RjE76 S#6 S#7 152.000000 $A=0.0289
RjE77 S#3 S#8 76.000000 $A=0.0578
*
*|NET 3 8.68473e-16
*|I (MX66/M0#d MX66/M0 d X 0 3.6505 0.8000)
*|I (MX63/M0#d MX63/M0 d X 0 3.9295 0.8000)
*|I (MX57/M0#s MX57/M0 s X 0 5.8005 0.8000)
*|I (MX55/M0#d MX55/M0 d X 0 3.0695 0.8000)
*|S (3 2.9300 0.8000)
*|S (3#2 2.9300 0.8000)
*|S (3#3 2.9300 0.7450)
*|S (3#5 3.7900 0.8000)
*|S (3#6 3.7900 0.7450)
*|S (3#8 5.9400 0.8000)
*|S (3#9 5.9400 0.7450)
*|S (3#10 5.9400 0.7450)
*|S (3#11 5.8250 0.7450)
*|S (3#12 3.7900 0.7450)
*|S (3#13 3.6750 0.7450)
*|S (3#14 3.0445 0.7450)
*|S (3#15 2.9300 0.7450)
CJ1 MX66/M0#d VSS 4.81187e-21
CJ2 3#15 VSS 5.62325e-18
CJ3 3#13 VSS 1.14356e-17
CJ4 3#11 VSS 1.0533e-17
CJ5 3#3 VSS 1.55316e-18
CJ6 3#6 VSS 2.92458e-18
CJ7 3#9 VSS 3.85404e-18
CJ8 3#11 34 2.58841e-17
CJ9 3#13 34 6.70205e-19
CJ10 3#13 30 1.9237e-17
CJ11 3#11 6#15 1.29866e-17
CJ12 3#11 6#22 2.42756e-17
CJ13 3#11 MX65/M0#d 2.16686e-17
CJ14 3#9 MX65/M0#d 1.81162e-17
CJ15 3#9 6#15 2.26697e-17
CJ16 3#3 5#4 1.33842e-17
CJ17 3#15 5#4 5.12042e-18
CJ18 3#3 5#8 4.9301e-18
CJ19 3#15 5#8 2.36356e-17
CJ20 3#11 MX57/M0#g 2.26497e-18
CJ21 3#15 4#29 2.18112e-18
CJ22 3#13 4#28 2.16022e-18
CJ23 3#11 4#28 5.63566e-18
CJ24 3#9 MX57/M0#g 6.05826e-18
CJ25 3#9 VSS#4 7.24561e-18
CJ26 3#6 MX66/M0#s 1.89362e-17
CJ27 3#3 MX66/M0#s 1.906e-17
CJ28 3#13 VSS#23 7.91609e-17
CJ29 3#11 VSS#23 6.84917e-17
CJ30 3#15 MX66/M0#s 1.63195e-17
CJ31 3#13 VSS#5 8.21833e-18
CJ32 3#6 MX63/M0#s 1.85107e-17
CJ33 3#3 VSS#8 6.01853e-18
CJ34 3#13 MX63/M0#s 2.93104e-17
CJ35 3#15 VSS#23 3.55854e-17
CJ36 3#13 MX66/M0#s 1.65186e-17
CJ37 3#11 VSS#4 7.89289e-18
CJ38 3#11 VSS#5 8.17268e-18
CJ39 3#3 VSS#23 4.74885e-18
CJ40 3#15 VSS#8 7.50964e-18
CJ41 3#6 VSS#23 4.74885e-18
CJ42 3#6 VSS#2 4.79145e-18
CJ43 3#9 VSS#23 4.74885e-18
CJ44 3#13 VSS#2 7.6326e-18
RfJ154 3#2 3#3 4.141177 $L=0.055 $W=0.17
RfJ155 3#5 3#6 4.141177 $L=0.055 $W=0.17
RfJ156 3#8 3#9 4.141177 $L=0.055 $W=0.17
ReJ157 3#10 3#11 0.062765 $L=0.1145 $W=0.29
ReJ158 3#11 3#12 1.777266 $L=2.035 $W=0.14
ReJ159 3#12 3#13 0.062765 $L=0.1145 $W=0.29
ReJ160 3#13 3#14 0.562716 $L=0.63 $W=0.14
ReJ161 3#14 3#15 0.062765 $L=0.1145 $W=0.29
RhJ162 3 3#2 15.000000 $A=0.0289
RhJ163 MX66/M0#d 3#5 15.000000 $A=0.0289
RhJ164 MX57/M0#s 3#8 15.000000 $A=0.0289
RjJ165 3#9 3#10 152.000000 $A=0.0289
RjJ166 3#6 3#12 152.000000 $A=0.0289
RjJ167 3#3 3#15 152.000000 $A=0.0289
RmwJ168 MX63/M0#d MX66/M0#d 0.001000 $W=1000000
RmwJ169 MX55/M0#d 3 0.001000 $W=1000000
*
*|NET 5 3.96417e-16
*|I (MX68/M0#s MX68/M0 s X 0 1.4105 0.8000)
*|I (MX59/M0#d MX59/M0 d X 0 2.2705 0.8000)
*|I (MX54/M0#d MX54/M0 d X 0 1.6895 0.8000)
*|S (5 1.5500 0.8000)
*|S (5#4 2.4100 0.8000)
*|S (5#7 2.4100 0.8000)
*|S (5#8 2.2950 0.8000)
*|S (5#9 1.6645 0.8000)
*|S (5#10 1.5500 0.8000)
CL1 MX68/M0#s VSS 4.81187e-21
CL2 5#10 VSS 5.01034e-18
CL3 5#8 VSS 6.41452e-18
CL4 5#4 VSS 8.33062e-19
CL5 5 VSS 2.27161e-18
CL6 5#10 VSS#23 3.21199e-17
CL7 5#4 VSS#23 5.06657e-18
CL8 5#8 VSS#23 2.86877e-17
CL9 5#8 MX59/M0#s 1.57071e-17
CL10 5 MX59/M0#s 1.92576e-17
CL11 5 VSS#23 5.06657e-18
CL12 5#10 VSS#9 6.84834e-18
CL13 5 VSS#9 6.01853e-18
CL14 5#4 MX59/M0#s 1.906e-17
CL15 5#4 VSS#9 6.01853e-18
CL16 5#10 MX59/M0#s 1.57178e-17
CL17 5#8 VSS#9 6.84834e-18
ReL196 5#7 5#8 0.062765 $L=0.1145 $W=0.29
ReL197 5#8 5#9 0.562716 $L=0.63 $W=0.14
ReL198 5#9 5#10 0.062765 $L=0.1145 $W=0.29
RhL199 MX68/M0#s 5 15.000000 $A=0.0289
RhL200 MX59/M0#d 5#4 15.000000 $A=0.0289
RjL201 5#4 5#7 152.000000 $A=0.0289
RjL202 5 5#10 152.000000 $A=0.0289
RmwL203 MX54/M0#d MX68/M0#s 0.001000 $W=1000000
*
*|NET CO 6.66241e-16
*|P (CO X 0 6.4550 1.8550)
*|I (MX56/M0#d MX56/M0 d X 0 6.5995 0.8000)
*|I (MX49/M0#d MX49/M0 d X 0 6.5995 3.2400)
*|S (CO#2 6.4600 3.2400)
*|S (CO#3 6.4600 3.2050)
*|S (CO#5 6.4600 0.8000)
*|S (CO#6 6.4600 0.7950)
*|S (CO#7 6.4600 0.7950)
*|S (CO#8 6.4600 3.2050)
CD1 CO#8 VSS 4.20363e-18
CD2 CO#7 VSS 1.56686e-17
CD3 CO#6 VSS 3.49241e-18
CD4 CO#3 VSS 5.92345e-18
CD5 CO VSS 7.10591e-18
CD6 CO#3 6#13 2.8595e-18
CD7 CO#8 MX62/M0#d 2.6892e-18
CD8 CO#3 6 2.4294e-18
CD9 CO#7 MX65/M0#d 1.43847e-18
CD10 CO#7 6#22 1.2145e-17
CD11 CO#6 6#14 6.59676e-18
CD12 CO 6#14 2.98148e-17
CD13 CO#8 6#19 2.52616e-17
CD14 CO#7 6#15 1.50572e-17
CD15 CO 6#22 2.06764e-17
CD16 CO 6#15 8.5471e-18
CD17 CO 6#19 9.81014e-18
CD18 CO#8 6#13 5.92321e-18
CD19 CO#8 MX49/M0#g 3.21289e-18
CD20 CO#3 4 2.09023e-18
CD21 CO#7 MX56/M0#g 2.02035e-18
CD22 CO#6 MX56/M0#g 7.60198e-18
CD23 CO#3 MX49/M0#g 1.03939e-17
CD24 CO 4#27 4.1188e-17
CD25 CO#3 4#27 5.24445e-18
CD26 CO#6 3#11 4.60846e-18
CD27 CO#7 3#11 3.19859e-17
CD28 CO#6 3#9 1.31953e-17
CD29 CO#7 3#9 6.83187e-18
CD30 CO#8 2#10 3.20038e-17
CD31 CO#3 2#9 1.94522e-17
CD32 CO#8 2#9 1.03967e-17
CD33 CO#6 VSS#4 6.01853e-18
CD34 CO#7 VSS#23 2.09341e-17
CD35 CO#7 VSS#4 6.62412e-18
CD36 CO#6 MX60/M0#s 1.85244e-17
CD37 CO#6 VSS#23 4.92387e-18
CD38 CO#7 MX60/M0#s 7.62279e-18
CD39 CO#3 VDD#4 6.0733e-18
CD40 CO#8 VDD#23 2.58661e-17
CD41 CO#8 MX49/M0#s 1.11811e-17
CD42 CO#3 VDD#23 5.5558e-18
CD43 CO#3 VDD 5.35615e-18
CD44 CO#8 VDD 1.74205e-17
CD45 CO#3 MX49/M0#s 3.06271e-17
CD46 CO#8 VDD#4 6.84521e-18
CD47 CO#7 S#6 1.99596e-18
CD48 CO#6 S#7 1.63129e-18
CD49 CO#7 S#7 2.8545e-17
CD50 CO#8 S#3 4.99518e-18
CD51 CO#3 S#8 3.59618e-18
CD52 CO#8 S#8 4.5082e-17
CD53 CO S 3.69538e-17
RfD62 CO#2 CO#3 2.635294 $L=0.035 $W=0.17
RfD63 CO#5 CO#6 0.376471 $L=0.005 $W=0.17
ReD64 CO CO#7 0.508300 $L=1.06 $W=0.26
ReD65 CO CO#8 0.646090 $L=1.35 $W=0.26
RhD66 MX56/M0#d CO#5 15.000000 $A=0.0289
Rh_2_D67 MX49/M0#d CO#2 15.000000 $A=0.0289
RjD68 CO#6 CO#7 152.000000 $A=0.0289
RjD69 CO#3 CO#8 76.000000 $A=0.0578
*
*|NET B 1.34285e-15
*|P (B X 0 4.6150 1.5500)
*|I (MX66/M0#g MX66/M0 g X 0 3.5750 0.8000)
*|I (MX64/M0#g MX64/M0 g X 0 0.9050 0.8000)
*|I (MX59/M0#g MX59/M0 g X 0 2.1950 0.8000)
*|I (MX42/M0#g MX42/M0 g X 0 4.8650 0.8000)
*|I (MX61/M0#g MX61/M0 g X 0 0.9050 3.2800)
*|I (MX51/M0#g MX51/M0 g X 0 4.8650 3.2800)
*|I (MX47/M0#g MX47/M0 g X 0 2.1950 3.2800)
*|I (MX45/M0#g MX45/M0 g X 0 3.5750 3.2800)
*|S (B#29 0.9050 1.2900)
*|S (B#30 0.9050 1.1250)
*|S (B#31 2.1950 1.2900)
*|S (B#32 2.1950 1.1250)
*|S (B#33 3.5750 1.2900)
*|S (B#34 3.5750 1.1250)
*|S (B#35 4.8650 1.2900)
*|S (B#36 4.8650 1.1250)
*|S (B#37 4.8650 1.2900)
*|S (B#38 4.6000 1.2900)
*|S (B#39 3.5750 1.2900)
*|S (B#40 2.1950 1.2900)
*|S (B#41 0.9050 1.2900)
*|S (B#42 4.6000 1.2900)
CB1 MX45/M0#g VSS 2.69041e-18
CB2 MX47/M0#g VSS 8.35096e-19
CB3 MX51/M0#g VSS 1.15317e-17
CB4 MX61/M0#g VSS 1.00371e-17
CB5 MX42/M0#g VSS 2.29535e-17
CB6 MX59/M0#g VSS 1.52628e-17
CB7 MX64/M0#g VSS 2.11724e-17
CB8 MX66/M0#g VSS 1.55785e-17
CB9 B#42 VSS 1.85709e-17
CB10 B#41 VSS 3.37192e-17
CB11 B#40 VSS 3.12386e-17
CB12 B#39 VSS 2.8133e-17
CB13 B#37 VSS 8.36308e-18
CB14 B#38 VSS 1.21759e-17
CB15 B VSS 3.91192e-18
CB16 B#42 34 2.5726e-18
CB17 MX42/M0#g 34 6.22221e-18
CB18 B#37 34 9.37714e-18
CB19 MX51/M0#g 32 7.7304e-18
CB20 B#38 30 1.56342e-17
CB21 MX42/M0#g 30 6.22221e-18
CB22 B#41 26 1.40456e-17
CB23 B#42 30 1.25871e-17
CB24 B 32 2.33943e-18
CB25 MX64/M0#g 26 6.21439e-18
CB26 B#37 30 5.73215e-18
CB27 B 6#19 4.23574e-18
CB28 B#37 6#22 3.18258e-18
CB29 B 6#15 2.79809e-18
CB30 B#42 6#15 7.88415e-18
CB31 B#37 6#15 7.64352e-18
CB32 B 6#22 1.34768e-17
CB33 B#42 6#22 1.67528e-17
CB34 MX59/M0#g 5 1.10945e-18
CB35 B#40 5#10 7.1599e-18
CB36 B#40 5#4 2.37425e-17
CB37 MX59/M0#g 5#4 6.05826e-18
CB38 B#40 5#8 1.0918e-17
CB39 MX59/M0#g 5#8 2.41754e-18
CB40 B#41 5#10 3.7558e-18
CB41 B#41 5 1.18713e-17
CB42 B#40 5 1.17963e-17
CB43 MX51/M0#g 4#28 6.15364e-18
CB44 MX64/M0#g MX68/M0#d 5.289e-18
CB45 MX61/M0#g 4#31 4.02732e-18
CB46 B#41 4#29 3.88962e-18
CB47 MX47/M0#g 4#29 1.66285e-18
CB48 MX64/M0#g 4#35 1.33218e-18
CB49 MX61/M0#g 4#23 6.78882e-18
CB50 B 4#28 2.31282e-17
CB51 B#41 4#35 3.6879e-17
CB52 B#41 MX68/M0#d 1.71219e-17
CB53 B#38 3#13 3.81226e-18
CB54 B#37 3#11 3.67556e-18
CB55 B#40 3#15 2.94265e-18
CB56 B#37 3#13 2.64117e-18
CB57 MX66/M0#g 3#13 1.87494e-18
CB58 B#42 3#6 1.59471e-18
CB59 MX59/M0#g 3#3 1.5265e-18
CB60 MX66/M0#g 3#3 1.0502e-18
CB61 B#40 3#3 8.51282e-18
CB62 B#39 3#13 1.16575e-17
CB63 B#39 3#3 1.52126e-17
CB64 B#39 3#15 7.20516e-18
CB65 B#39 3#6 2.41079e-17
CB66 B#42 3#13 3.54836e-17
CB67 MX66/M0#g 3#6 5.289e-18
CB68 MX45/M0#g 2#11 2.2346e-18
CB69 MX47/M0#g 2#3 2.12713e-18
CB70 MX51/M0#g 2#11 1.62149e-18
CB71 MX51/M0#g 2#10 1.58935e-18
CB72 B#39 2#12 1.57642e-18
CB73 MX45/M0#g 2#3 1.35509e-18
CB74 MX45/M0#g 2#6 6.78882e-18
CB75 B 2#11 1.16617e-17
CB76 MX47/M0#g 1#7 1.74369e-18
CB77 MX47/M0#g 1#3 1.43272e-18
CB78 B#40 1#8 1.40671e-18
CB79 B#40 1#7 1.84041e-18
CB80 MX47/M0#g 1#6 7.83139e-18
CB81 MX59/M0#g MX59/M0#s 6.54909e-18
CB82 MX66/M0#g MX66/M0#s 6.22221e-18
CB83 B#40 VSS#23 5.2788e-18
CB84 MX64/M0#g VSS#10 4.87612e-18
CB85 MX42/M0#g VSS#5 4.87612e-18
CB86 MX64/M0#g VSS#23 4.8201e-18
CB87 B#42 MX63/M0#s 3.7378e-18
CB88 MX59/M0#g VSS#9 3.64084e-18
CB89 MX66/M0#g VSS#2 3.64084e-18
CB90 B#40 VSS#9 3.33769e-18
CB91 MX42/M0#g VSS#23 2.85203e-18
CB92 MX59/M0#g VSS#23 1.91137e-18
CB93 MX66/M0#g VSS#23 1.85048e-18
CB94 B#39 VSS#2 1.6934e-18
CB95 B#41 VSS#10 1.65878e-18
CB96 B#41 VSS#9 1.56356e-18
CB97 MX64/M0#g MX58/M0#s 1.54951e-18
CB98 B#37 VSS#5 1.49742e-18
CB99 B#40 VSS#8 1.3689e-18
CB100 MX66/M0#g MX63/M0#s 1.23873e-18
CB101 MX42/M0#g MX63/M0#s 1.22324e-18
CB102 B#40 MX59/M0#s 2.70409e-17
CB103 B#38 MX63/M0#s 2.263e-17
CB104 B#41 VSS#23 6.87578e-18
CB105 B#39 MX66/M0#s 2.71096e-17
CB106 MX51/M0#g VDD#5 5.77573e-18
CB107 MX61/M0#g VDD#10 5.04997e-18
CB108 MX61/M0#g VDD#23 4.40344e-18
CB109 MX47/M0#g VDD#9 3.77064e-18
CB110 MX45/M0#g VDD#2 3.77064e-18
CB111 MX45/M0#g VDD#23 3.17053e-18
CB112 MX47/M0#g VDD#23 3.17053e-18
CB113 MX51/M0#g VDD#23 3.15996e-18
CB114 MX61/M0#g MX53/M0#s 1.92515e-18
CB115 MX61/M0#g VDD 1.55973e-17
CB116 MX45/M0#g VDD 1.25489e-17
CB117 MX47/M0#g MX67/M0#s 8.13756e-18
CB118 MX45/M0#g MX48/M0#s 7.7304e-18
CB119 MX47/M0#g VDD 1.45213e-17
CB120 MX51/M0#g VDD 1.37733e-17
CB121 B#39 CI#32 4.35691e-18
CB122 MX59/M0#g CI#31 1.67168e-18
CB123 B CI#30 1.64723e-17
CB124 B CI#28 1.1911e-17
CB125 B#39 CI#30 4.54775e-17
CB126 B CI#32 5.14941e-17
CB127 B#40 CI#31 4.44989e-17
CB128 B#38 CI#32 7.09259e-18
CB129 B#40 CI#30 9.64959e-18
CB130 B#39 MX63/M0#g 9.2391e-18
CB131 B#41 MX68/M0#g 9.27001e-18
CB132 B#42 CI#32 9.16761e-18
CB133 B#38 CI#30 2.15231e-17
CB134 B#41 CI#31 1.6656e-17
CB135 B#37 CI#28 1.53299e-17
CB136 B CI 1.87534e-17
RgB23 MX61/M0#g B#29 620.612427 $L=1.99 $W=0.15
RgB24 B#29 B#30 34.134449 $L=0.1645 $W=0.27
RgB25 B#30 MX64/M0#g 104.477959 $L=0.325 $W=0.15
RgB26 MX47/M0#g B#31 620.612427 $L=1.99 $W=0.15
RgB27 B#31 B#32 34.134449 $L=0.1645 $W=0.27
RgB28 B#32 MX59/M0#g 104.477959 $L=0.325 $W=0.15
RgB29 MX45/M0#g B#33 620.612427 $L=1.99 $W=0.15
RgB30 B#33 B#34 34.134449 $L=0.1645 $W=0.27
RgB31 B#34 MX66/M0#g 104.477959 $L=0.325 $W=0.15
RgB32 MX51/M0#g B#35 620.612427 $L=1.99 $W=0.15
RgB33 B#35 B#36 34.134449 $L=0.1645 $W=0.27
RgB34 B#36 MX42/M0#g 104.477959 $L=0.325 $W=0.15
RfB35 B#37 B#38 19.952942 $L=0.265 $W=0.17
RfB36 B#38 B#39 77.176468 $L=1.025 $W=0.17
RfB37 B#39 B#40 103.905884 $L=1.38 $W=0.17
RfB38 B#40 B#41 97.129410 $L=1.29 $W=0.17
ReB39 B B#42 0.125000 $L=0.26 $W=0.26
RjB40 B#38 B#42 152.000000 $A=0.0289
RiB41 B#35 B#37 15.000000 $A=0.0289
RiB42 B#33 B#39 15.000000 $A=0.0289
RiB43 B#31 B#40 15.000000 $A=0.0289
RiB44 B#29 B#41 15.000000 $A=0.0289
*
*|NET VDD 1.81558e-15
*|P (VDD X 0 4.8250 4.1450)
*|I (MX67/M0#s MX67/M0 s X 0 1.8405 3.2800)
*|I (MX53/M0#s MX53/M0 s X 0 0.3995 3.2800)
*|I (MX50/M0#s MX50/M0 s X 0 4.3595 3.2800)
*|I (MX49/M0#s MX49/M0 s X 0 6.7505 3.2400)
*|I (MX48/M0#s MX48/M0 s X 0 3.2205 3.2800)
*|I (MX47/M0#s MX47/M0 s X 0 2.1195 3.2800)
*|I (MX46/M0#s MX46/M0 s X 0 7.0295 3.2400)
*|I (MX45/M0#s MX45/M0 s X 0 3.4995 3.2800)
*|I (MX43/M0#s MX43/M0 s X 0 4.0805 3.2800)
*|S (VDD#1 7.3600 4.1400)
*|S (VDD#2 7.3600 4.1400)
*|S (VDD#4 6.8900 4.1400)
*|S (VDD#5 4.2200 4.1400)
*|S (VDD#6 3.6800 4.1400)
*|S (VDD#8 3.3600 4.1400)
*|S (VDD#9 1.9800 4.1400)
*|S (VDD#10 0.1725 4.1400)
*|S (VDD#11 0.2600 4.0150)
*|S (VDD#13 0.2600 3.2800)
*|S (VDD#15 6.8900 3.2400)
*|S (VDD#17 4.2200 3.2800)
*|S (VDD#19 3.3600 3.2800)
*|S (VDD#21 1.9800 3.2800)
*|S (VDD#22 7.3600 4.1400)
*|S (VDD#23 3.6800 4.1400)
CF1 MX48/M0#s VSS 2.66406e-18
CF2 MX50/M0#s VSS 3.48761e-18
CF3 MX67/M0#s VSS 3.86452e-18
CF4 VDD#23 VSS 9.48903e-18
CF5 VDD#22 VSS 1.22359e-18
CF6 VDD#10 VSS 1.70776e-18
CF7 VDD#9 VSS 4.92708e-18
CF8 VDD#8 VSS 1.10102e-18
CF9 VDD#5 VSS 5.55117e-18
CF10 VDD#4 VSS 3.40104e-18
CF11 VDD#2 VSS 2.08971e-18
CF12 VDD VSS 5.27159e-18
CF13 VDD#23 36 6.45094e-18
CF14 VDD 36 5.92237e-18
CF15 VDD#5 36 7.29567e-18
CF16 VDD#10 28 6.06011e-18
CF17 VDD 32 5.35185e-18
CF18 VDD 28 9.83836e-18
CF19 VDD#23 32 6.07767e-18
CF20 VDD#5 32 6.06011e-18
CF21 VDD#23 28 7.89282e-18
CF22 MX53/M0#s 28 3.13202e-17
CF23 MX50/M0#s 32 2.75722e-17
CF24 VDD#2 6 2.88773e-18
CF25 VDD#22 6 2.85182e-18
CF26 VDD#4 MX62/M0#d 2.59928e-18
CF27 VDD#23 6 1.78239e-18
CF28 VDD#23 MX62/M0#d 6.21061e-18
CF29 MX49/M0#s 6 1.02568e-17
CF30 VDD 6 1.1126e-17
CF31 VDD#5 MX62/M0#d 4.76932e-18
CF32 VDD 6#13 1.54455e-17
CF33 VDD 6#19 2.34282e-17
CF34 MX49/M0#s 6#14 6.2259e-18
CF35 VDD#23 4#23 5.82029e-18
CF36 VDD#4 MX49/M0#g 5.81423e-18
CF37 VDD#4 4 5.77573e-18
CF38 VDD#23 MX49/M0#g 5.48428e-18
CF39 MX53/M0#s 4#31 3.99125e-18
CF40 VDD#23 4#27 3.87255e-18
CF41 VDD#10 4#23 3.63746e-18
CF42 VDD#9 4#23 3.61399e-18
CF43 VDD#23 4#28 3.27503e-18
CF44 VDD#23 4 3.17053e-18
CF45 VDD#23 4#31 1.74365e-17
CF46 MX49/M0#s MX49/M0#g 9.23577e-18
CF47 VDD 4#29 3.63599e-17
CF48 VDD 4 1.37966e-17
CF49 VDD 4#28 3.41732e-17
CF50 VDD 4#32 3.17555e-17
CF51 VDD MX49/M0#g 1.30849e-17
CF52 VDD 4#27 1.54531e-17
CF53 VDD 4#31 2.20933e-17
CF54 VDD#2 2#11 4.52163e-18
CF55 VDD#23 2#3 5.83913e-18
CF56 VDD#5 2#10 6.75674e-18
CF57 VDD#4 2#9 7.27491e-18
CF58 VDD#5 2#11 6.07808e-18
CF59 MX48/M0#s 2#11 1.34311e-17
CF60 MX50/M0#s 2#6 2.66095e-17
CF61 VDD#8 2#3 6.04287e-18
CF62 VDD#23 2#10 5.06159e-17
CF63 MX50/M0#s 2#11 2.70149e-17
CF64 VDD#23 2#11 5.66287e-17
CF65 VDD#23 2#12 2.50513e-17
CF66 MX48/M0#s 2#12 1.35058e-17
CF67 VDD#23 2#9 6.31195e-18
CF68 MX48/M0#s 2#3 2.66095e-17
CF69 VDD#4 2#10 6.30301e-18
CF70 VDD#2 2#6 4.81083e-18
CF71 VDD#23 2#6 5.83913e-18
CF72 MX48/M0#s 2#6 2.66095e-17
CF73 VDD#8 2#12 5.23379e-18
CF74 VDD#9 1#3 6.04287e-18
CF75 MX67/M0#s 1#8 1.35058e-17
CF76 VDD#9 1#6 6.04287e-18
CF77 VDD#9 1#7 5.23379e-18
CF78 MX67/M0#s 1#3 2.56595e-17
CF79 VDD#9 1#8 5.02e-18
CF80 MX67/M0#s 1#6 2.66095e-17
CF81 MX67/M0#s 1#7 1.34382e-17
CF82 VDD#23 1#3 5.83913e-18
CF83 VDD#23 1#8 2.48124e-17
CF84 VDD#23 1#7 2.50173e-17
CF85 VDD#23 1#6 5.83913e-18
RfF78 VDD#1 VDD#4 23.788811 $L=0.47 $W=0.25
RfF79 VDD#4 VDD#5 136.153625 $L=2.67 $W=0.25
RfF80 VDD#5 VDD#6 27.372812 $L=0.54 $W=0.25
RfF81 VDD#6 VDD#8 16.108810 $L=0.32 $W=0.25
RfF82 VDD#8 VDD#9 70.105621 $L=1.38 $W=0.25
RfF83 VDD#9 VDD#10 87.132530 $L=1.8075 $W=0.25
RfF84 VDD#10 VDD#11 3.709770 $L=0.1245 $W=0.345
RfF85 VDD#11 VDD#13 55.350452 $L=0.735 $W=0.17
RfF86 VDD#4 VDD#15 61.156857 $L=0.9 $W=0.17
RfF87 VDD#5 VDD#17 58.145092 $L=0.86 $W=0.17
RfF88 VDD#8 VDD#19 58.145092 $L=0.86 $W=0.17
RfF89 VDD#9 VDD#21 58.145092 $L=0.86 $W=0.17
ReF90 VDD#22 VDD 0.792188 $L=2.535 $W=0.4
ReF91 VDD VDD#23 0.357812 $L=1.145 $W=0.4
Rh_1_F92 VDD#2 VDD#1 15.000000 $A=0.0289
Rh_1_F93 VDD#2 VDD#6 1.000000 $A=0.4335
Rh_2_F94 MX53/M0#s VDD#13 15.000000 $A=0.0289
Rh_2_F95 MX49/M0#s VDD#15 15.000000 $A=0.0289
Rh_2_F96 MX50/M0#s VDD#17 15.000000 $A=0.0289
Rh_2_F97 MX48/M0#s VDD#19 15.000000 $A=0.0289
Rh_2_F98 MX67/M0#s VDD#21 15.000000 $A=0.0289
RjF99 VDD#1 VDD#22 152.000000 $A=0.0289
RjF100 VDD#6 VDD#23 10.133333 $A=0.4335
RmwF101 MX47/M0#s MX67/M0#s 0.001000 $W=1000000
RmwF102 MX46/M0#s MX49/M0#s 0.001000 $W=1000000
RmwF103 MX45/M0#s MX48/M0#s 0.001000 $W=1000000
RmwF104 MX43/M0#s MX50/M0#s 0.001000 $W=1000000
*
*|NET A 1.29763e-15
*|P (A X 0 3.6950 2.3950)
*|I (MX58/M0#g MX58/M0 g X 0 0.4750 0.8000)
*|I (MX55/M0#g MX55/M0 g X 0 3.1450 0.8000)
*|I (MX54/M0#g MX54/M0 g X 0 1.7650 0.8000)
*|I (MX41/M0#g MX41/M0 g X 0 4.4350 0.8000)
*|I (MX67/M0#g MX67/M0 g X 0 1.7650 3.2800)
*|I (MX53/M0#g MX53/M0 g X 0 0.4750 3.2800)
*|I (MX50/M0#g MX50/M0 g X 0 4.4350 3.2800)
*|I (MX48/M0#g MX48/M0 g X 0 3.1450 3.2800)
*|S (A#29 0.4750 2.6500)
*|S (A#30 0.4750 2.4850)
*|S (A#31 1.7650 2.6500)
*|S (A#32 1.7650 2.4850)
*|S (A#33 3.1450 2.6500)
*|S (A#34 3.1450 2.4850)
*|S (A#35 4.4350 2.6500)
*|S (A#36 4.4350 2.4850)
*|S (A#37 4.4350 2.6500)
*|S (A#38 3.6800 2.6500)
*|S (A#39 3.1450 2.6500)
*|S (A#40 1.7650 2.6500)
*|S (A#41 0.4750 2.6500)
*|S (A#42 3.6800 2.6500)
CA1 MX48/M0#g VSS 3.44589e-18
CA2 MX50/M0#g VSS 3.68327e-18
CA3 MX67/M0#g VSS 3.95957e-18
CA4 MX41/M0#g VSS 2.93574e-17
CA5 MX54/M0#g VSS 1.68787e-17
CA6 MX55/M0#g VSS 1.88494e-17
CA7 MX58/M0#g VSS 2.26421e-17
CA8 A#41 VSS 1.52305e-18
CA9 A#40 VSS 1.37274e-18
CA10 A#39 VSS 2.45165e-18
CA11 A#37 VSS 5.94053e-18
CA12 A#38 VSS 3.34086e-18
CA13 A VSS 5.45138e-18
CA14 A#37 32 1.40863e-17
CA15 A#41 28 2.6339e-17
CA16 MX53/M0#g 28 9.07616e-18
CA17 A 32 4.53099e-18
CA18 A 28 1.83097e-18
CA19 MX50/M0#g 32 7.7304e-18
CA20 A#37 6#19 4.2504e-18
CA21 A 6#13 4.09872e-18
CA22 MX55/M0#g 5#4 1.5265e-18
CA23 MX54/M0#g 5#4 1.0502e-18
CA24 A#40 5#10 2.68632e-18
CA25 MX54/M0#g 5#10 2.25547e-18
CA26 A#40 5#8 2.01294e-18
CA27 MX54/M0#g 5 5.289e-18
CA28 A#41 4#23 4.33513e-18
CA29 MX53/M0#g 4#23 1.83122e-18
CA30 A#38 4#29 1.67869e-18
CA31 MX50/M0#g 4#28 1.66285e-18
CA32 MX48/M0#g 4#29 1.66285e-18
CA33 MX67/M0#g 4#29 1.66285e-18
CA34 A#41 4#31 7.44162e-18
CA35 A#40 4#32 1.50415e-17
CA36 A#39 4#29 4.06574e-17
CA37 A#41 4#29 9.39689e-18
CA38 A 4#28 2.72535e-17
CA39 A#41 4#32 1.26077e-17
CA40 A#40 4#23 7.4652e-18
CA41 A#40 4#31 8.2812e-18
CA42 A#37 4#28 2.29217e-17
CA43 A#38 4#28 2.09275e-17
CA44 A#40 4#29 5.30323e-17
CA45 A#39 3#15 2.37176e-18
CA46 MX55/M0#g 3#15 2.28836e-18
CA47 MX41/M0#g 3#13 1.64145e-18
CA48 A 3#6 1.30887e-18
CA49 MX55/M0#g 3#3 6.05826e-18
CA50 A 3#13 1.30976e-17
CA51 MX50/M0#g 2#11 1.96493e-18
CA52 MX48/M0#g 2#12 1.74369e-18
CA53 A#39 2#12 1.01589e-17
CA54 MX48/M0#g 2#3 7.83139e-18
CA55 A 2#6 6.26291e-18
CA56 A 2#11 5.03091e-17
CA57 A#37 2#11 6.68642e-18
CA58 A#39 2#3 1.68684e-17
CA59 A#38 2#6 1.53609e-17
CA60 A#38 2#11 5.82765e-18
CA61 MX67/M0#g 1#8 1.74369e-18
CA62 MX67/M0#g 1#3 6.78882e-18
CA63 A#40 1#3 1.68684e-17
CA64 A#40 1#8 9.8661e-18
CA65 MX48/M0#g 1#6 2.12713e-18
CA66 A#40 1#6 1.0656e-17
CA67 A#40 1#7 6.19823e-18
CA68 A#39 1#7 3.93568e-18
CA69 A#39 1#6 6.16306e-18
CA70 MX54/M0#g MX59/M0#s 6.22221e-18
CA71 MX41/M0#g MX63/M0#s 6.22221e-18
CA72 MX58/M0#g VSS#23 4.8201e-18
CA73 MX58/M0#g VSS#10 4.29097e-18
CA74 A#41 VSS#23 3.90362e-18
CA75 MX54/M0#g VSS#9 3.64084e-18
CA76 MX55/M0#g VSS#8 3.64084e-18
CA77 MX41/M0#g VSS#5 3.64084e-18
CA78 MX58/M0#g MX58/M0#s 8.2007e-18
CA79 MX55/M0#g MX66/M0#s 6.54909e-18
CA80 MX53/M0#g VDD#23 5.21861e-18
CA81 A#39 VDD#23 4.50846e-18
CA82 A#40 VDD#23 3.9946e-18
CA83 MX53/M0#g VDD#10 3.77064e-18
CA84 MX67/M0#g VDD#9 3.77064e-18
CA85 MX48/M0#g VDD#8 3.77064e-18
CA86 MX50/M0#g VDD#5 3.77064e-18
CA87 MX48/M0#g VDD#23 3.17053e-18
CA88 MX50/M0#g VDD#23 3.17053e-18
CA89 MX67/M0#g VDD#23 3.17053e-18
CA90 A#40 VDD#9 2.54347e-18
CA91 A#41 VDD#10 1.96493e-18
CA92 A#38 VDD#23 1.9082e-18
CA93 A#39 VDD#8 1.68846e-18
CA94 MX48/M0#g MX48/M0#s 8.13756e-18
CA95 A#37 VDD 1.18157e-17
CA96 A#41 VDD#23 7.86698e-18
CA97 MX53/M0#g VDD 1.39295e-17
CA98 A#41 MX53/M0#s 8.13395e-18
CA99 A#38 VDD 9.25112e-18
CA100 MX50/M0#g MX50/M0#s 7.7304e-18
CA101 MX53/M0#g MX53/M0#s 1.01888e-17
CA102 MX67/M0#g VDD 1.45213e-17
CA103 MX48/M0#g VDD 1.45213e-17
CA104 A#40 MX67/M0#s 1.97764e-17
CA105 A#38 MX48/M0#s 6.74124e-18
CA106 MX67/M0#g MX67/M0#s 7.7304e-18
CA107 A#39 MX48/M0#s 1.29764e-17
CA108 MX50/M0#g VDD 1.45213e-17
CA109 A#41 VDD 4.13123e-17
CA110 A VDD 4.25174e-17
CA111 A#40 VDD 2.65679e-17
CA112 A#37 MX50/M0#s 1.48611e-17
CA113 A#39 VDD 2.23496e-17
CA114 A#38 MX43/M0#g 6.11263e-18
CA115 A#38 CI 5.89665e-18
CA116 MX54/M0#g CI#31 1.67168e-18
CA117 A#40 MX52/M0#g 9.10069e-18
CA118 A CI#32 2.41555e-17
CA119 A CI#30 3.43728e-17
CA120 A#37 CI 1.60624e-17
CA121 A CI 7.05928e-17
CA122 MX41/M0#g B#38 5.91581e-18
CA123 A#41 B#41 5.07051e-18
CA124 A#38 MX45/M0#g 4.93285e-18
CA125 A B#39 4.58611e-18
CA126 A MX45/M0#g 4.14176e-18
CA127 A#37 B 3.60535e-18
CA128 A#40 MX47/M0#g 6.79518e-18
CA129 MX54/M0#g B#40 6.9216e-18
CA130 MX55/M0#g B#39 6.9216e-18
CA131 A#41 MX61/M0#g 1.01211e-17
RgA1 MX53/M0#g A#29 183.599075 $L=0.63 $W=0.15
RgA2 A#29 A#30 34.134449 $L=0.1645 $W=0.27
RgA3 A#30 MX58/M0#g 541.491272 $L=1.685 $W=0.15
RgA4 MX67/M0#g A#31 183.599075 $L=0.63 $W=0.15
RgA5 A#31 A#32 34.134449 $L=0.1645 $W=0.27
RgA6 A#32 MX54/M0#g 541.491272 $L=1.685 $W=0.15
RgA7 MX48/M0#g A#33 183.599075 $L=0.63 $W=0.15
RgA8 A#33 A#34 34.134449 $L=0.1645 $W=0.27
RgA9 A#34 MX55/M0#g 541.491272 $L=1.685 $W=0.15
RgA10 MX50/M0#g A#35 183.599075 $L=0.63 $W=0.15
RgA11 A#35 A#36 34.134449 $L=0.1645 $W=0.27
RgA12 A#36 MX41/M0#g 541.491272 $L=1.685 $W=0.15
RfA13 A#37 A#38 56.847057 $L=0.755 $W=0.17
RfA14 A#38 A#39 40.282352 $L=0.535 $W=0.17
RfA15 A#39 A#40 103.905884 $L=1.38 $W=0.17
RfA16 A#40 A#41 97.129410 $L=1.29 $W=0.17
ReA17 A A#42 0.122596 $L=0.255 $W=0.26
RjA18 A#38 A#42 152.000000 $A=0.0289
RiA19 A#35 A#37 15.000000 $A=0.0289
RiA20 A#33 A#39 15.000000 $A=0.0289
RiA21 A#31 A#40 15.000000 $A=0.0289
RiA22 A#29 A#41 15.000000 $A=0.0289
*
*|NET VSS 2.3427e-15
*|P (VSS X 0 4.8250 0.0050)
*|I (MX66/M0#s MX66/M0 s X 0 3.4995 0.8000)
*|I (MX63/M0#s MX63/M0 s X 0 4.0805 0.8000)
*|I (MX60/M0#s MX60/M0 s X 0 7.0295 0.8000)
*|I (MX59/M0#s MX59/M0 s X 0 2.1195 0.8000)
*|I (MX58/M0#s MX58/M0 s X 0 0.3995 0.8000)
*|I (MX56/M0#s MX56/M0 s X 0 6.7505 0.8000)
*|I (MX55/M0#s MX55/M0 s X 0 3.2205 0.8000)
*|I (MX54/M0#s MX54/M0 s X 0 1.8405 0.8000)
*|I (MX41/M0#s MX41/M0 s X 0 4.3595 0.8000)
*|S (VSS#1 7.3600 0.0000)
*|S (VSS#2 7.3600 0.0000)
*|S (VSS#4 6.8900 0.0000)
*|S (VSS#5 4.2200 0.0000)
*|S (VSS#6 3.6800 0.0000)
*|S (VSS#8 3.3600 0.0000)
*|S (VSS#9 1.9800 0.0000)
*|S (VSS#10 0.1725 0.0000)
*|S (VSS#11 0.2600 0.1245)
*|S (VSS#13 0.2600 0.8000)
*|S (VSS#15 6.8900 0.8000)
*|S (VSS#17 4.2200 0.8000)
*|S (VSS#19 3.3600 0.8000)
*|S (VSS#21 1.9800 0.8000)
*|S (VSS#22 7.3600 0.0000)
*|S (VSS#23 3.6800 0.0000)
RfG105 VSS#1 VSS#4 23.788811 $L=0.47 $W=0.25
RfG106 VSS#4 VSS#5 136.153625 $L=2.67 $W=0.25
RfG107 VSS#5 VSS#6 27.372812 $L=0.54 $W=0.25
RfG108 VSS#6 VSS#8 16.108810 $L=0.32 $W=0.25
RfG109 VSS#8 VSS#9 70.105621 $L=1.38 $W=0.25
RfG110 VSS#9 VSS#10 87.132530 $L=1.8075 $W=0.25
RfG111 VSS#10 VSS#11 3.709770 $L=0.1245 $W=0.345
RfG112 VSS#11 VSS#13 50.832806 $L=0.675 $W=0.17
RfG113 VSS#4 VSS#15 53.627445 $L=0.8 $W=0.17
RfG114 VSS#5 VSS#17 53.627445 $L=0.8 $W=0.17
RfG115 VSS#8 VSS#19 53.627445 $L=0.8 $W=0.17
RfG116 VSS#9 VSS#21 53.627445 $L=0.8 $W=0.17
ReG117 VSS#22 VSS 0.792188 $L=2.535 $W=0.4
ReG118 VSS VSS#23 0.357812 $L=1.145 $W=0.4
RhG119 MX58/M0#s VSS#13 15.000000 $A=0.0289
RhG120 MX60/M0#s VSS#15 15.000000 $A=0.0289
RhG121 MX63/M0#s VSS#17 15.000000 $A=0.0289
RhG122 MX66/M0#s VSS#19 15.000000 $A=0.0289
RhG123 MX59/M0#s VSS#21 15.000000 $A=0.0289
Rh_3_G124 VSS#2 VSS#1 15.000000 $A=0.0289
Rh_3_G125 VSS#2 VSS#6 1.000000 $A=0.4335
RjG126 VSS#1 VSS#22 152.000000 $A=0.0289
RjG127 VSS#6 VSS#23 10.133333 $A=0.4335
RmwG128 MX56/M0#s MX60/M0#s 0.001000 $W=1000000
RmwG129 MX55/M0#s MX66/M0#s 0.001000 $W=1000000
RmwG130 MX54/M0#s MX59/M0#s 0.001000 $W=1000000
RmwG131 MX41/M0#s MX63/M0#s 0.001000 $W=1000000
*
*|NET 6 9.53254e-16
*|I (MX65/M0#d MX65/M0 d X 0 5.3705 0.8000)
*|I (MX60/M0#g MX60/M0 g X 0 7.1050 0.8000)
*|I (MX57/M0#d MX57/M0 d X 0 5.6495 0.8000)
*|I (MX62/M0#d MX62/M0 d X 0 5.3705 3.2800)
*|I (MX46/M0#g MX46/M0 g X 0 7.1050 3.2400)
*|I (MX44/M0#d MX44/M0 d X 0 5.6495 3.2800)
*|S (6 7.1050 3.2400)
*|S (6#8 7.1650 1.7895)
*|S (6#9 7.1650 1.6250)
*|S (6#10 7.1650 1.4600)
*|S (6#12 5.5100 3.2800)
*|S (6#13 5.5100 2.7350)
*|S (6#14 7.1650 1.6250)
*|S (6#15 5.5100 1.2700)
*|S (6#16 5.4700 1.1850)
*|S (6#18 5.5100 0.8000)
*|S (6#19 5.5100 2.7350)
*|S (6#20 5.5100 2.5900)
*|S (6#21 5.5100 1.4145)
*|S (6#22 5.5100 1.2700)
CM1 MX62/M0#d VSS 1.95228e-18
CM2 MX60/M0#g VSS 1.72859e-17
CM3 MX65/M0#d VSS 4.37876e-18
CM4 6#22 VSS 1.37608e-17
CM5 6#19 VSS 1.32572e-18
CM6 6#14 VSS 3.30746e-17
CM7 6#15 VSS 4.99155e-17
CM8 6#13 VSS 5.33264e-18
CM9 6 VSS 1.44874e-18
CM10 MX62/M0#d 36 2.57401e-17
CM11 MX65/M0#d 34 1.80085e-17
CM12 6#13 36 9.47676e-18
CM13 MX65/M0#d VSS#5 4.72894e-18
CM14 MX60/M0#g VSS#2 2.85426e-18
CM15 MX65/M0#d VSS#4 2.57727e-18
CM16 MX60/M0#g VSS#22 2.50645e-18
CM17 6#15 VSS#4 2.1891e-18
CM18 6#14 VSS#22 1.74596e-18
CM19 6#14 VSS#23 5.02665e-18
CM20 MX60/M0#g MX60/M0#s 7.3052e-18
CM21 6#15 VSS#23 5.67412e-18
CM22 MX65/M0#d VSS#23 5.54507e-18
CM23 6#14 MX60/M0#s 1.31481e-17
RgM204 6 6#8 465.977966 $L=1.45 $W=0.15
RgM205 6#8 6#9 38.857975 $L=0.1645 $W=0.27
RgM206 6#9 6#10 29.410927 $L=0.1645 $W=0.27
RgM207 6#10 MX60/M0#g 212.124634 $L=0.66 $W=0.15
RfM208 6#12 6#13 41.035294 $L=0.545 $W=0.17
RfM209 6#14 6#15 140.044632 $L=2.01 $W=0.17
RfM210 6#15 6#16 4.339200 $L=0.0845 $W=0.25
RfM211 6#16 6#18 29.001036 $L=0.385 $W=0.17
ReM212 6#19 6#20 0.088170 $L=0.1445 $W=0.23
ReM213 6#20 6#21 1.049379 $L=1.175 $W=0.14
ReM214 6#21 6#22 0.088170 $L=0.1445 $W=0.23
RhM215 MX65/M0#d 6#18 15.000000 $A=0.0289
Rh_2_M216 MX62/M0#d 6#12 15.000000 $A=0.0289
RjM217 6#13 6#19 152.000000 $A=0.0289
RjM218 6#15 6#22 152.000000 $A=0.0289
RiM219 6#9 6#14 15.000000 $A=0.0289
RmwM220 MX57/M0#d MX65/M0#d 0.001000 $W=1000000
RmwM221 MX46/M0#g 6 0.001000 $W=1000000
RmwM222 MX44/M0#d MX62/M0#d 0.001000 $W=1000000
*
*|NET CI 1.37491e-15
*|P (CI X 0 4.1450 2.0650)
*|I (MX68/M0#g MX68/M0 g X 0 1.3350 0.8000)
*|I (MX65/M0#g MX65/M0 g X 0 5.2950 0.8000)
*|I (MX63/M0#g MX63/M0 g X 0 4.0050 0.8000)
*|I (MX62/M0#g MX62/M0 g X 0 5.2950 3.2800)
*|I (MX52/M0#g MX52/M0 g X 0 1.3350 3.2800)
*|I (MX43/M0#g MX43/M0 g X 0 4.0050 3.2800)
*|S (CI#22 1.3350 1.8050)
*|S (CI#23 1.3350 1.6400)
*|S (CI#24 4.0050 1.8050)