*
*|DSPF 1.5
*
*|DATE "Fri Feb 28 14:13:13 2025"
*|VENDOR "Cadence Design Systems"
*|PROGRAM "Cadence Quantus Extraction"
*|VERSION "22.1.0-p089 Linux 64 bit - (Thu Jan 19 11:47:08 PST 2023)"
*|DESIGN "AND2X2_LP"
*|DIVIDER /
*|DELIMITER #
*|DeviceFingerDelim "@"
*|BUSBIT []
*|GLOBAL_TEMPERATURE 25
*|OPERATING_TEMPERATURE 25
** QRC_TECH_DIR /vols/wfo_devel/projects/reference_SKY130/tech/sky130_release_0.0.4/quantus/extraction/typical 
** HIERARCHICAL_SPLIT_PINS_DELIMITER '%'
** caps2d version: 10
*
.SUBCKT  AND2X2_LP A B VDD VSS Y
*
*Net Section
*
*|GROUND_NET VSS
*
*|NET 1 1.22312e-15
*|I (MX14/M0#g MX14/M0 g X 0 1.3950 0.8000)
*|I (MX14/M1#g MX14/M1 g X 0 1.8250 0.8000)
*|I (MX11/M0#d MX11/M0 d X 0 0.3995 0.8000)
*|I (MX15/M0#g MX15/M0 g X 0 1.3950 3.2400)
*|I (MX15/M1#g MX15/M1 g X 0 1.8250 3.2400)
*|I (MX13/M0#d MX13/M0 d X 0 0.5505 3.2800)
*|I (MM0#s MM0 s X 0 0.8295 3.2800)
*|S (1 1.3950 3.2400)
*|S (1#15 1.8250 1.6250)
*|S (1#16 1.6100 1.6250)
*|S (1#17 1.3850 1.6250)
*|S (1#18 1.3850 1.4600)
*|S (1#19 1.8350 1.4600)
*|S (1#20 1.3850 1.7895)
*|S (1#21 0.2600 0.8000)
*|S (1#24 0.6900 3.3850)
*|S (1#26 0.6900 3.2800)
*|S (1#27 1.6100 1.6250)
*|S (1#28 0.9050 1.6250)
*|S (1#29 0.6900 3.3850)
*|S (1#30 0.9050 3.3850)
*|S (1#31 0.9050 1.6250)
*|S (1#32 0.3745 0.8000)
*|S (1#33 0.2600 0.8000)
CF1 MX13/M0#d VSS 1.95526e-18
CF2 MX14/M1#g VSS 1.89496e-17
CF3 MX14/M0#g VSS 1.70574e-17
CF4 1#32 VSS 3.25527e-17
CF5 1#31 VSS 3.2917e-17
CF6 1#29 VSS 5.45808e-18
CF7 1#27 VSS 2.22786e-17
CF8 1#21 VSS 1.28932e-17
CF9 1#28 VSS 1.91621e-17
CF10 1 VSS 5.08132e-19
CF11 1#32 9 2.57363e-17
CF12 1#28 9 6.41695e-18
CF13 1#31 9 3.92382e-18
CF14 MX14/M0#g 9 1.34182e-18
CF15 1#29 9 1.49959e-18
CF16 1#21 9 1.83977e-17
CF17 1#27 VSS#9 2.95088e-18
CF18 MX14/M1#g VSS#9 2.82733e-18
CF19 1#31 MX14/M0#s 1.99794e-18
CF20 MX14/M1#g MX14/M0#s 1.95905e-18
CF21 MX14/M0#g MX14/M1#d 1.44248e-18
CF22 1#32 MX14/M0#s 8.88566e-18
CF23 1#32 VSS#5 1.54006e-17
CF24 1#21 VSS#9 5.53542e-18
CF25 MX14/M0#g VSS#5 4.29097e-18
CF26 1#28 MX14/M0#s 5.81495e-18
CF27 1#21 VSS#5 7.23952e-18
CF28 MX14/M0#g MX14/M0#s 6.47271e-18
CF29 1#27 MX14/M0#s 4.30195e-18
CF30 1#32 VSS#9 5.77471e-17
CF31 MX14/M1#g MX14/M1#d 8.13429e-18
CF32 MX14/M1#g VSS#3 5.74683e-18
CF33 MX14/M0#g VSS#9 3.87872e-18
RgF49 MX15/M1#g 1#15 512.778748 $L=1.615 $W=0.15
RgF50 1#15 1#16 20.521515 $L=0.218 $W=0.33
RgF51 1#16 1#17 20.521515 $L=0.218 $W=0.33
RgF52 1#17 1#18 46.128941 $L=0.1645 $W=0.17
RgF53 1#18 MX14/M0#g 212.150879 $L=0.66 $W=0.15
RgF54 1#15 1#19 46.128941 $L=0.1645 $W=0.17
RgF55 1#19 MX14/M1#g 212.150879 $L=0.66 $W=0.15
RgF56 1#17 1#20 46.131256 $L=0.1645 $W=0.17
RgF57 1#20 1 466.004211 $L=1.45 $W=0.15
RfF58 1#24 1#26 7.905882 $L=0.105 $W=0.17
RfF59 1#27 1#28 53.082355 $L=0.705 $W=0.17
ReF60 1#29 1#30 0.078632 $L=0.215 $W=0.29
ReF61 1#30 1#31 0.913246 $L=1.76 $W=0.23
ReF62 1#31 1#32 0.681362 $L=1.355 $W=0.23
ReF63 1#32 1#33 0.051723 $L=0.1145 $W=0.29
RhF64 MX11/M0#d 1#21 15.000000 $A=0.0289
Rh_2_F65 MX13/M0#d 1#26 15.000000 $A=0.0289
RjF66 1#24 1#29 152.000000 $A=0.0289
RjF67 1#28 1#31 152.000000 $A=0.0289
RjF68 1#21 1#33 152.000000 $A=0.0289
RiF69 1#16 1#27 7.500000 $A=0.0578
RmwF70 MX15/M0#g 1 0.001000 $W=1000000
RmwF71 MM0#s MX13/M0#d 0.001000 $W=1000000
*
*|NET Y 7.36642e-16
*|P (Y X 0 1.8520 2.2840)
*|I (MX14/M0#d MX14/M0 d X 0 1.4705 0.8000)
*|I (MX14/M1#s MX14/M1 s X 0 1.7495 0.8000)
*|I (MX15/M0#d MX15/M0 d X 0 1.4705 3.2400)
*|I (MX15/M1#s MX15/M1 s X 0 1.7495 3.2400)
*|S (Y#1 1.6100 3.3250)
*|S (Y#3 1.6100 3.2400)
*|S (Y#4 1.6100 0.8000)
*|S (Y#7 1.6100 3.3250)
*|S (Y#8 1.8400 3.3250)
*|S (Y#9 1.8400 0.8000)
*|S (Y#10 1.6100 0.8000)
CE1 MX15/M0#d VSS 2.92262e-18
CE2 MX14/M0#d VSS 3.53962e-18
CE3 Y#10 VSS 4.69264e-17
CE4 Y#7 VSS 1.31821e-18
CE5 Y VSS 2.07543e-17
CE6 Y#7 MX15/M1#g 3.00685e-18
CE7 MX14/M0#d 1#32 2.66695e-18
CE8 Y#10 MX14/M1#g 2.17495e-18
CE9 Y#7 MX13/M0#d 1.70363e-18
CE10 Y#7 1 1.56316e-18
CE11 Y#10 1#32 1.79665e-17
CE12 MX14/M0#d MX14/M0#g 5.289e-18
CE13 MX15/M0#d 1#29 4.83237e-18
CE14 Y#10 1#31 2.35369e-17
CE15 MX14/M0#d MX14/M1#g 5.93885e-18
CE16 Y#7 1#29 3.36588e-17
CE17 MX15/M0#d 1#27 3.94123e-18
CE18 MX14/M0#d 1#27 1.05132e-17
CE19 Y#10 1#27 1.83791e-17
CE20 MX15/M0#d 1 7.79987e-18
CE21 MX15/M0#d MX15/M1#g 8.75522e-18
CE22 Y 1#27 1.74947e-17
CE23 Y#10 VSS#5 2.76156e-18
CE24 MX14/M0#d VSS#5 2.39573e-18
CE25 Y#10 MX14/M1#d 2.77705e-17
CE26 Y#10 MX14/M0#s 5.67945e-18
CE27 Y#10 VSS#3 5.33948e-18
CE28 Y#10 VSS#9 3.00827e-17
CE29 MX14/M0#d VSS#9 5.16656e-18
CE30 MX14/M0#d MX14/M0#s 1.97111e-17
CE31 MX14/M0#d MX14/M1#d 1.8784e-17
RfE38 Y#1 Y#3 6.400000 $L=0.085 $W=0.17
ReE39 Y#7 Y#8 0.078159 $L=0.23 $W=0.29
ReE40 Y#8 Y 0.465825 $L=1.041 $W=0.26
ReE41 Y Y#9 0.678806 $L=1.484 $W=0.26
ReE42 Y#9 Y#10 0.078159 $L=0.23 $W=0.29
RhE43 MX14/M0#d Y#4 15.000000 $A=0.0289
Rh_2_E44 MX15/M0#d Y#3 15.000000 $A=0.0289
RjE45 Y#1 Y#7 152.000000 $A=0.0289
RjE46 Y#4 Y#10 152.000000 $A=0.0289
RmwE47 MX14/M1#s MX14/M0#d 0.001000 $W=1000000
RmwE48 MX15/M1#s MX15/M0#d 0.001000 $W=1000000
*
*|NET 9 1.10105e-16
*|I (MX12/M0#d MX12/M0 d X 0 0.8295 0.8000)
*|I (MX11/M0#s MX11/M0 s X 0 0.5505 0.8000)
*|S (9 0.6900 0.8000)
CG1 9 VSS 2.38219e-17
CG2 9 VSS#5 5.72e-18
CG3 9 VSS#9 5.57185e-18
CG4 9 MX14/M0#s 1.76756e-17
RmwG72 MX12/M0#d 9 0.001000 $W=1000000
RmwG73 MX11/M0#s 9 0.001000 $W=1000000
*
*|NET B 4.38982e-16
*|P (B X 0 0.4720 2.3920)
*|I (MX11/M0#g MX11/M0 g X 0 0.4750 0.8000)
*|I (MX13/M0#g MX13/M0 g X 0 0.4750 3.2800)
*|S (B#8 0.4750 2.6500)
*|S (B#9 0.4750 2.4850)
*|S (B#10 0.4750 2.6500)
*|S (B#11 0.4000 2.6500)
*|S (B#12 0.4375 2.5050)
*|S (B#13 0.4000 2.6500)
CB1 MX13/M0#g VSS 2.55097e-19
CB2 MX11/M0#g VSS 2.14589e-17
CB3 B#13 VSS 1.24464e-18
CB4 B#11 VSS 3.46216e-18
CB5 B VSS 2.64295e-17
CB6 MX13/M0#g 1#29 2.10928e-18
CB7 B 1#29 1.50759e-18
CB8 B#11 MX13/M0#d 1.06034e-17
CB9 B 1#21 2.36349e-18
CB10 MX13/M0#g MX13/M0#d 7.75732e-18
CB11 B#11 1#29 1.09284e-17
CB12 B 1#32 1.5684e-17
CB13 B 1#31 8.44538e-17
CB14 MX11/M0#g 1#21 6.90392e-18
CB15 B#11 1#32 4.08939e-18
CB16 B#13 1#29 6.16689e-17
CB17 B VSS#5 1.86699e-18
CB18 MX11/M0#g VSS#9 1.86155e-18
CB19 B#11 VSS#9 1.70026e-18
CB20 MX11/M0#g VSS#5 5.74683e-18
CB21 B#11 VDD#9 1.30751e-18
CB22 B#13 VDD#9 1.29269e-18
CB23 MX13/M0#g VDD#13 3.93892e-18
CB24 MX13/M0#g MX13/M0#s 1.01888e-17
CB25 MX13/M0#g MX15/M0#s 2.34048e-18
CB26 MX13/M0#g VDD#9 3.77064e-18
CB27 B#11 VDD 3.6918e-17
CB28 B#13 VDD#13 9.4001e-18
CB29 B#11 MX13/M0#s 1.78345e-17
CB30 B#13 VDD 2.40136e-17
CB31 MX13/M0#g VDD 1.42269e-17
CB32 B VDD 2.21365e-17
CB33 B#11 VDD#13 3.85406e-18
CB34 B#13 MX13/M0#s 6.43578e-18
RgB8 MX13/M0#g B#8 183.599075 $L=0.63 $W=0.15
RgB9 B#8 B#9 34.134449 $L=0.1645 $W=0.27
RgB10 B#9 MX11/M0#g 541.491272 $L=1.685 $W=0.15
RfB11 B#10 B#11 5.647059 $L=0.075 $W=0.17
ReB12 B B#12 0.054429 $L=0.113 $W=0.26
ReB13 B#12 B#13 0.062401 $L=0.1445 $W=0.305
RjB14 B#11 B#13 152.000000 $A=0.0289
RiB15 B#8 B#10 15.000000 $A=0.0289
*
*|NET VSS 7.04614e-16
*|P (VSS X 0 1.3500 0.0050)
*|I (MX14/M0#s MX14/M0 s X 0 1.3195 0.8000)
*|I (MX14/M1#d MX14/M1 d X 0 1.9005 0.8000)
*|I (MX12/M0#s MX12/M0 s X 0 0.9805 0.8000)
*|S (VSS#2 2.0400 0.8000)
*|S (VSS#3 2.1275 0.0000)
*|S (VSS#4 1.1500 0.0000)
*|S (VSS#5 1.1500 0.0000)
*|S (VSS#8 1.1800 0.8000)
*|S (VSS#9 1.1500 0.0000)
RfD29 VSS#2 VSS#3 57.815445 $L=0.8 $W=0.17
RfD30 VSS#3 VSS#4 44.911716 $L=0.9775 $W=0.25
RfD31 VSS#4 VSS#8 57.223530 $L=0.8 $W=0.17
ReD32 VSS VSS#9 0.062500 $L=0.2 $W=0.4
RhD33 MX14/M1#d VSS#2 15.000000 $A=0.0289
RhD34 MX14/M0#s VSS#8 15.000000 $A=0.0289
Rh_3_D35 VSS#5 VSS#4 3.750000 $A=0.1156
RjD36 VSS#4 VSS#9 38.000000 $A=0.1156
RmwD37 MX12/M0#s MX14/M0#s 0.001000 $W=1000000
*
*|NET A 5.79317e-16
*|P (A X 0 1.3920 2.1810)
*|I (MX12/M0#g MX12/M0 g X 0 0.9050 0.8000)
*|I (MM0#g MM0 g X 0 0.9050 3.2800)
*|S (A#8 0.9050 2.0750)
*|S (A#9 0.9050 1.9100)
*|S (A#10 1.3800 2.0750)
*|S (A#11 0.9050 2.0750)
*|S (A#12 1.3800 2.0750)
CA1 MM0#g VSS 1.06452e-18
CA2 MX12/M0#g VSS 2.6468e-17
CA3 A#12 VSS 6.23934e-18
CA4 A#11 VSS 7.26854e-18
CA5 A#10 VSS 7.95027e-18
CA6 A VSS 2.14943e-18
CA7 A#10 1 2.16449e-18
CA8 A#10 1#28 1.55803e-18
CA9 MX12/M0#g 1#21 1.16947e-18
CA10 MX12/M0#g 1#31 8.28184e-19
CA11 MM0#g 1#29 8.26597e-19
CA12 MM0#g MX13/M0#d 7.15316e-18
CA13 A#12 1#31 5.54711e-17
CA14 A#11 1#28 1.94903e-17
CA15 A#11 1#31 2.72775e-17
CA16 A#12 1#27 2.41207e-17
CA17 MX12/M0#g 1#28 4.31664e-18
CA18 A#11 MX13/M0#d 4.49755e-18
CA19 A#10 1#27 2.02919e-17
CA20 A#12 MX14/M0#g 3.86997e-18
CA21 A 1#31 3.61259e-17
CA22 A 1#29 3.43746e-17
CA23 A 1 7.01972e-18
CA24 A#10 Y#7 1.12493e-18
CA25 A#12 Y#10 1.4794e-17
CA26 A#10 MX15/M0#d 3.87483e-18
CA27 A Y#7 1.41661e-17
CA28 A#10 Y 8.59069e-18
CA29 A#12 Y 4.77767e-17
CA30 A Y 6.79964e-17
CA31 MX12/M0#g VSS#9 2.87869e-18
CA32 A#12 MX14/M0#s 2.16887e-18
CA33 A#12 VSS#9 6.82184e-18
CA34 MX12/M0#g VSS#5 5.74683e-18
CA35 MX12/M0#g MX14/M0#s 6.00805e-18
CA36 MM0#g VDD#13 2.88175e-18
CA37 MM0#g MX13/M0#s 2.27656e-18
CA38 A VDD#5 1.87524e-18
CA39 A VDD#13 7.84725e-18
CA40 MM0#g VDD 1.80631e-17
CA41 A#10 VDD 7.07109e-18
CA42 MM0#g MX15/M0#s 8.35965e-18
CA43 A MX15/M0#s 5.81115e-18
CA44 A#11 VDD 7.77889e-18
CA45 A#10 MX15/M0#s 3.02889e-18
CA46 MM0#g VDD#5 5.77573e-18
CA47 A VDD 1.26925e-17
CA48 A#11 MX15/M0#s 2.98368e-18
CA49 A#11 B 9.228e-18
RgA1 MM0#g A#8 368.365753 $L=1.205 $W=0.15
RgA2 A#8 A#9 34.134449 $L=0.1645 $W=0.27
RgA3 A#9 MX12/M0#g 356.724640 $L=1.11 $W=0.15
RfA4 A#10 A#11 35.764706 $L=0.475 $W=0.17
ReA5 A A#12 0.050962 $L=0.106 $W=0.26
RjA6 A#10 A#12 152.000000 $A=0.0289
RiA7 A#8 A#11 15.000000 $A=0.0289
*
*|NET VDD 7.01175e-16
*|P (VDD X 0 1.3500 4.1450)
*|I (MX15/M0#s MX15/M0 s X 0 1.3195 3.2400)
*|I (MX15/M1#d MX15/M1 d X 0 1.9005 3.2400)
*|I (MX13/M0#s MX13/M0 s X 0 0.3995 3.2800)
*|I (MM0#d MM0 d X 0 0.9805 3.2800)
*|S (VDD#2 2.0400 3.2400)
*|S (VDD#3 2.1275 4.1400)
*|S (VDD#4 1.1500 4.1400)
*|S (VDD#5 1.1500 4.1400)
*|S (VDD#8 1.1800 3.2400)
*|S (VDD#9 0.1725 4.1400)
*|S (VDD#10 0.2600 4.0150)
*|S (VDD#12 0.2600 3.2800)
*|S (VDD#13 1.1500 4.1400)
CC1 MX15/M1#d VSS 1.17524e-18
CC2 MX15/M0#s VSS 1.05178e-18
CC3 VDD#13 VSS 5.08547e-18
CC4 VDD#5 VSS 2.23029e-18
CC5 VDD VSS 1.98079e-18
CC6 VDD#13 MX15/M1#g 3.08573e-18
CC7 VDD#9 1#29 2.84919e-18
CC8 VDD 1#31 2.81623e-18
CC9 MX15/M0#s MX15/M1#g 2.69974e-18
CC10 VDD#5 MX13/M0#d 2.49928e-18
CC11 VDD#9 MX13/M0#d 2.28703e-18
CC12 MX15/M1#d 1 2.28522e-18
CC13 VDD#3 MX15/M1#g 5.81423e-18
CC14 MX15/M1#d MX15/M1#g 1.14131e-17
CC15 VDD#13 1#29 3.79861e-17
CC16 VDD#13 MX13/M0#d 5.38693e-18
CC17 VDD#5 1 4.34129e-18
CC18 VDD#5 1#29 7.07712e-18
CC19 MX15/M0#s MX13/M0#d 2.06512e-17
CC20 MX13/M0#s MX13/M0#d 2.57484e-17
CC21 MX15/M0#s 1#29 2.03322e-17
CC22 VDD 1#29 1.26836e-17
CC23 VDD MX15/M1#g 1.8266e-17
CC24 VDD 1 1.63846e-17
CC25 MX13/M0#s 1#29 1.13334e-17
CC26 MX15/M0#s 1 9.52009e-18
CC27 VDD#13 1 4.14256e-18
CC28 VDD#5 Y#7 2.72764e-18
CC29 VDD#3 MX15/M0#d 2.38834e-18
CC30 VDD#13 Y#7 2.91891e-17
CC31 VDD Y#7 3.05886e-17
CC32 MX15/M0#s MX15/M0#d 2.93131e-17
CC33 VDD#3 Y#7 5.27598e-18
CC34 MX15/M0#s Y#7 9.27984e-18
CC35 MX15/M1#d Y#7 3.63977e-17
CC36 MX15/M1#d MX15/M0#d 2.74442e-17
CC37 VDD Y 3.74641e-17
CC38 VDD#13 MX15/M0#d 5.87595e-18
RfC16 VDD#2 VDD#3 65.344856 $L=0.9 $W=0.17
RfC17 VDD#3 VDD#4 44.911716 $L=0.9775 $W=0.25
RfC18 VDD#4 VDD#8 64.752945 $L=0.9 $W=0.17
RfC19 VDD#4 VDD#9 44.911720 $L=0.9775 $W=0.25
RfC20 VDD#9 VDD#10 3.709770 $L=0.1245 $W=0.345
RfC21 VDD#10 VDD#12 55.350452 $L=0.735 $W=0.17
ReC22 VDD VDD#13 0.062500 $L=0.2 $W=0.4
Rh_1_C23 VDD#5 VDD#4 3.750000 $A=0.1156
Rh_2_C24 MX15/M1#d VDD#2 15.000000 $A=0.0289
Rh_2_C25 MX15/M0#s VDD#8 15.000000 $A=0.0289
Rh_2_C26 MX13/M0#s VDD#12 15.000000 $A=0.0289
RjC27 VDD#4 VDD#13 38.000000 $A=0.1156
RmwC28 MM0#d MX15/M0#s 0.001000 $W=1000000
*
*Instance Section
*
MX14/M0	MX14/M0#d	MX14/M0#g	MX14/M0#s	VSS	nfet_01v8
+ L=1.5e-07	W=4.2e-07
MX14/M1	MX14/M1#d	MX14/M1#g	MX14/M1#s	VSS	nfet_01v8
+ L=1.5e-07	W=4.2e-07
MX12/M0	MX12/M0#d	MX12/M0#g	MX12/M0#s	VSS	nfet_01v8
+ L=1.5e-07	W=4.2e-07
MX11/M0	MX11/M0#d	MX11/M0#g	MX11/M0#s	VSS	nfet_01v8
+ L=1.5e-07	W=4.2e-07
MX15/M0	MX15/M0#d	MX15/M0#g	MX15/M0#s	VDD	pfet_01v8_hvt
+ L=1.5e-07	W=6.2e-07
MX15/M1	MX15/M1#d	MX15/M1#g	MX15/M1#s	VDD	pfet_01v8_hvt
+ L=1.5e-07	W=6.2e-07
MX13/M0	MX13/M0#d	MX13/M0#g	MX13/M0#s	VDD	pfet_01v8_hvt
+ L=1.5e-07	W=5.4e-07
MM0	MM0#d	MM0#g	MM0#s	VDD	pfet_01v8_hvt	L=1.5e-07
+ W=5.4e-07
.ENDS
