*
*|DSPF 1.5
*
*|DATE "Fri Feb 28 14:09:19 2025"
*|VENDOR "Cadence Design Systems"
*|PROGRAM "Cadence Quantus Extraction"
*|VERSION "22.1.0-p089 Linux 64 bit - (Thu Jan 19 11:47:08 PST 2023)"
*|DESIGN "AND4X1_LP"
*|DIVIDER /
*|DELIMITER #
*|DeviceFingerDelim "@"
*|BUSBIT []
*|GLOBAL_TEMPERATURE 25
*|OPERATING_TEMPERATURE 25
** QRC_TECH_DIR /vols/wfo_devel/projects/reference_SKY130/tech/sky130_release_0.0.4/quantus/extraction/typical 
** HIERARCHICAL_SPLIT_PINS_DELIMITER '%'
** caps2d version: 10
*
.SUBCKT  AND4X1_LP A B C D VDD VSS Y
*
*Net Section
*
*|GROUND_NET VSS
*
*|NET Y 7.8063e-16
*|P (Y X 0 2.7650 1.8250)
*|I (MX15/M0#d MX15/M0 d X 0 2.3305 0.8000)
*|I (MX14/M0#d MX14/M0 d X 0 2.3305 3.2400)
*|S (Y#1 2.4700 3.3850)
*|S (Y#3 2.4700 3.2400)
*|S (Y#5 2.4700 0.8000)
*|S (Y#6 2.4700 0.7550)
*|S (Y#7 2.4700 3.3850)
*|S (Y#8 2.7600 3.3850)
*|S (Y#9 2.7600 0.7550)
*|S (Y#10 2.4700 0.7550)
CG1 MX14/M0#d VSS 6.99537e-19
CG2 Y#10 VSS 6.06086e-18
CG3 Y#9 VSS 4.64158e-17
CG4 Y#7 VSS 4.92571e-18
CG5 Y#8 VSS 1.65342e-18
CG6 Y#6 VSS 5.36023e-18
CG7 Y VSS 4.02185e-17
CG8 MX14/M0#d 10#21 2.8794e-18
CG9 Y#10 10#21 1.70132e-18
CG10 Y#10 MX15/M0#g 1.5038e-18
CG11 MX14/M0#d 10#24 2.10157e-17
CG12 Y#8 10#24 6.26774e-17
CG13 Y 10#21 7.58826e-18
CG14 Y#6 MX15/M0#g 6.90392e-18
CG15 Y#10 10#27 5.41424e-17
CG16 MX14/M0#d 10 1.01855e-17
CG17 Y#6 10#21 4.33481e-18
CG18 Y#9 10#27 4.11036e-17
CG19 Y#6 10#27 9.93697e-18
CG20 Y 10#27 1.59484e-17
CG21 Y#7 10#24 5.4475e-17
CG22 Y 10#25 9.71176e-17
CG23 Y 10#24 1.05238e-17
CG24 Y#6 VSS#8 5.18149e-18
CG25 Y#9 VSS#1 5.60084e-18
CG26 Y#9 VSS#8 2.13006e-17
CG27 Y#6 VSS#2 6.01853e-18
CG28 Y#6 MX15/M0#s 1.8857e-17
CG29 Y#10 VSS#2 5.23511e-18
CG30 Y#10 VSS#8 2.00006e-17
CG31 Y#10 MX15/M0#s 4.03546e-18
RfG53 Y#1 Y#3 10.917646 $L=0.145 $W=0.17
RfG54 Y#5 Y#6 3.388236 $L=0.045 $W=0.17
ReG55 Y#7 Y#8 0.104021 $L=0.29 $W=0.29
ReG56 Y#8 Y 0.715344 $L=1.56 $W=0.26
ReG57 Y Y#9 0.479767 $L=1.07 $W=0.26
ReG58 Y#9 Y#10 0.104021 $L=0.29 $W=0.29
RhG59 MX15/M0#d Y#5 15.000000 $A=0.0289
Rh_2_G60 MX14/M0#d Y#3 15.000000 $A=0.0289
RjG61 Y#1 Y#7 152.000000 $A=0.0289
RjG62 Y#6 Y#10 152.000000 $A=0.0289
*
*|NET A 4.87449e-16
*|P (A X 0 1.8400 2.2100)
*|I (MX12/M0#g MX12/M0 g X 0 1.7650 0.8000)
*|I (MX19/M0#g MX19/M0 g X 0 1.7650 3.2800)
*|S (A#8 1.7650 1.8750)
*|S (A#9 1.7650 1.7100)
*|S (A#10 1.7950 1.8750)
*|S (A#11 1.7650 1.8750)
*|S (A#12 1.7950 1.8750)
CA1 MX19/M0#g VSS 2.39896e-18
CA2 MX12/M0#g VSS 1.85994e-17
CA3 A#12 VSS 9.58092e-18
CA4 A#11 VSS 2.02215e-17
CA5 A VSS 2.15849e-18
CA6 A#11 14 5.70437e-18
CA7 MX12/M0#g 14 6.55076e-18
CA8 MX12/M0#g 10#27 1.51566e-18
CA9 A#11 10#27 4.72472e-18
CA10 A#11 10#25 3.31408e-18
CA11 A#11 10#22 2.99058e-18
CA12 A#12 10#27 2.95413e-17
CA13 A#11 10#21 1.33494e-17
CA14 A#12 10#21 3.88029e-18
CA15 A 10#25 4.61189e-17
CA16 A 10#24 2.78893e-17
CA17 A 10#22 1.4183e-17
CA18 A#12 10#25 5.04464e-17
CA19 A#11 MX19/M0#d 4.56771e-18
CA20 MX19/M0#g MX19/M0#d 7.14575e-18
CA21 A#11 MX15/M0#s 1.82771e-18
CA22 A#12 MX15/M0#s 3.43227e-18
CA23 MX12/M0#g MX15/M0#s 6.01802e-18
CA24 MX12/M0#g VSS#3 5.74683e-18
CA25 MX12/M0#g VSS#8 2.87869e-18
CA26 MX19/M0#g MX11/M0#s 1.52572e-18
CA27 A#11 MX19/M0#s 1.2006e-18
CA28 MX19/M0#g VDD 1.57028e-17
CA29 A MX19/M0#s 5.11658e-18
CA30 MX19/M0#g MX19/M0#s 8.39837e-18
CA31 MX19/M0#g VDD#3 5.77808e-18
CA32 MX19/M0#g VDD#15 2.93352e-18
CA33 A VDD 1.58051e-17
CA34 A C#11 4.97433e-18
CA35 A C 1.55869e-17
CA36 A#12 B 4.32923e-17
CA37 A#11 B 1.00649e-17
CA38 A#12 B#11 3.61484e-18
CA39 A#12 B#12 1.90112e-17
CA40 A B 3.96587e-17
RgA1 MX19/M0#g A#8 432.632416 $L=1.405 $W=0.15
RgA2 A#8 A#9 34.134449 $L=0.1645 $W=0.27
RgA3 A#9 MX12/M0#g 292.457947 $L=0.91 $W=0.15
RfA4 A#10 A#11 2.258824 $L=0.03 $W=0.17
ReA5 A A#12 0.161058 $L=0.335 $W=0.26
RjA6 A#10 A#12 152.000000 $A=0.0289
RiA7 A#8 A#11 15.000000 $A=0.0289
*
*|NET 10 1.77631e-15
*|I (MX15/M0#g MX15/M0 g X 0 2.2550 0.8000)
*|I (MX13/M0#d MX13/M0 d X 0 0.3995 0.8000)
*|I (MX19/M0#d MX19/M0 d X 0 1.6895 3.2800)
*|I (MX14/M0#g MX14/M0 g X 0 2.2550 3.2400)
*|I (MX11/M0#d MX11/M0 d X 0 0.8295 3.2800)
*|I (MX10/M0#d MX10/M0 d X 0 0.5505 3.2800)
*|I (MM0#d MM0 d X 0 1.4105 3.2800)
*|S (10 2.2550 3.2400)
*|S (10#8 2.3150 2.0395)
*|S (10#9 2.3150 1.8750)
*|S (10#10 2.3150 1.7100)
*|S (10#11 0.2600 0.8000)
*|S (10#14 0.6900 3.3850)
*|S (10#16 0.6900 3.2800)
*|S (10#17 1.5500 3.3850)
*|S (10#19 1.5500 3.2800)
*|S (10#20 2.3150 1.8750)
*|S (10#21 2.2950 1.8750)
*|S (10#22 1.5500 3.3850)
*|S (10#23 2.2075 3.0995)
*|S (10#24 2.2075 2.8700)
*|S (10#25 2.2950 1.8750)
*|S (10#26 2.2075 1.2695)
*|S (10#27 2.2075 1.0400)
*|S (10#28 0.2600 0.8000)
*|S (10#29 0.6900 3.3850)
CH1 MX11/M0#d VSS 2.44889e-19
CH2 MX19/M0#d VSS 6.15067e-19
CH3 MX15/M0#g VSS 1.42259e-17
CH4 10#29 VSS 2.40206e-18
CH5 10#28 VSS 4.02625e-17
CH6 10#27 VSS 3.16679e-17
CH7 10#25 VSS 2.43843e-18
CH8 10#24 VSS 1.31303e-18
CH9 10#22 VSS 3.72021e-18
CH10 10#11 VSS 1.3626e-17
CH11 10#21 VSS 1.65415e-17
CH12 10 VSS 1.57354e-18
CH13 10#29 16 5.19568e-19
CH14 10#28 16 2.50136e-17
CH15 10#27 16 9.61095e-19
CH16 10#29 15 1.78353e-18
CH17 10#11 15 1.8398e-17
CH18 10#28 15 2.66323e-17
CH19 MX15/M0#g 14 1.73696e-18
CH20 10#22 14 7.45364e-19
CH21 10#27 14 2.584e-17
CH22 10#24 MX15/M0#s 3.28142e-18
CH23 10#27 VSS#8 5.32692e-17
CH24 MX15/M0#g MX15/M0#s 7.36574e-18
CH25 MX15/M0#g VSS#2 5.74683e-18
CH26 10#27 MX15/M0#s 3.19774e-17
CH27 10#27 VSS#3 7.43866e-18
CH28 10#27 VSS#2 4.29621e-18
CH29 10#28 VSS#8 5.95685e-17
CH30 10#11 VSS#3 7.23952e-18
CH31 10#11 VSS#8 5.56615e-18
CH32 10#28 VSS#3 1.60245e-17
RgH63 10 10#8 385.644623 $L=1.2 $W=0.15
RgH64 10#8 10#9 38.857975 $L=0.1645 $W=0.27
RgH65 10#9 10#10 29.410927 $L=0.1645 $W=0.27
RgH66 10#10 MX15/M0#g 292.457947 $L=0.91 $W=0.15
RfH67 10#14 10#16 7.905882 $L=0.105 $W=0.17
RfH68 10#17 10#19 7.905882 $L=0.105 $W=0.17
RfH69 10#20 10#21 1.505882 $L=0.02 $W=0.17
ReH70 10#22 10#23 0.398716 $L=0.835 $W=0.23
ReH71 10#23 10#24 0.137496 $L=0.229 $W=0.234
ReH72 10#24 10#25 0.478436 $L=0.995 $W=0.26
ReH73 10#25 10#26 0.290936 $L=0.605 $W=0.26
ReH74 10#26 10#27 0.133542 $L=0.229 $W=0.234
ReH75 10#27 10#28 1.075346 $L=2.08 $W=0.23
ReH76 10#22 10#29 0.467391 $L=0.86 $W=0.23
RhH77 MX13/M0#d 10#11 15.000000 $A=0.0289
Rh_2_H78 MX11/M0#d 10#16 15.000000 $A=0.0289
Rh_2_H79 MX19/M0#d 10#19 15.000000 $A=0.0289
RjH80 10#17 10#22 152.000000 $A=0.0289
RjH81 10#21 10#25 152.000000 $A=0.0289
RjH82 10#11 10#28 152.000000 $A=0.0289
RjH83 10#14 10#29 152.000000 $A=0.0289
RiH84 10#9 10#20 15.000000 $A=0.0289
RmwH85 MX14/M0#g 10 0.001000 $W=1000000
RmwH86 MX10/M0#d MX11/M0#d 0.001000 $W=1000000
RmwH87 MM0#d MX19/M0#d 0.001000 $W=1000000
*
*|NET C 4.28049e-16
*|P (C X 0 0.9350 2.4850)
*|I (MX20/M0#g MX20/M0 g X 0 0.9050 0.8000)
*|I (MX11/M0#g MX11/M0 g X 0 0.9050 3.2800)
*|S (C#8 0.9050 2.5900)
*|S (C#9 0.9050 2.4250)
*|S (C#10 0.9250 2.5900)
*|S (C#11 0.9050 2.5900)
*|S (C#12 0.9250 2.5900)
CC1 MX11/M0#g VSS 1.41032e-18
CC2 MX20/M0#g VSS 3.10467e-17
CC3 C#11 VSS 2.50618e-18
CC4 C VSS 1.32662e-17
CC5 C#11 10#24 1.78209e-18
CC6 MX11/M0#g MX19/M0#d 1.3261e-18
CC7 MX20/M0#g 10#11 1.16947e-18
CC8 C MX11/M0#d 1.2024e-17
CC9 C MX19/M0#d 2.63685e-18
CC10 MX11/M0#g MX11/M0#d 6.79887e-18
CC11 C#11 MX11/M0#d 9.25308e-18
CC12 MX20/M0#g 10#28 2.31154e-18
CC13 C#11 10#28 4.39564e-18
CC14 C#11 10#29 3.62842e-18
CC15 C 10#29 4.43594e-17
CC16 C 10#28 1.23201e-17
CC17 C 10#24 1.38056e-17
CC18 MX20/M0#g VSS#3 5.74683e-18
CC19 C VSS#3 2.28766e-18
CC20 MX20/M0#g VSS#8 2.87869e-18
CC21 C MX19/M0#s 1.88069e-18
CC22 MX11/M0#g MX10/M0#s 1.77988e-18
CC23 C#11 VDD 2.62454e-17
CC24 C#11 MX11/M0#s 8.25697e-18
CC25 MX11/M0#g VDD#6 3.80462e-18
CC26 MX11/M0#g VDD#15 2.93352e-18
CC27 C MX10/M0#s 3.23009e-18
CC28 C MX11/M0#s 1.21946e-17
CC29 C VDD 3.19599e-17
CC30 MX11/M0#g MX11/M0#s 7.74044e-18
CC31 MX11/M0#g VDD 1.44957e-17
CC32 C D 5.90199e-17
RgC15 MX11/M0#g C#8 202.879089 $L=0.69 $W=0.15
RgC16 C#8 C#9 34.134449 $L=0.1645 $W=0.27
RgC17 C#9 MX20/M0#g 522.211304 $L=1.625 $W=0.15
RfC18 C#10 C#11 1.505882 $L=0.02 $W=0.17
ReC19 C C#12 0.050481 $L=0.105 $W=0.26
RjC20 C#10 C#12 152.000000 $A=0.0289
RiC21 C#8 C#11 15.000000 $A=0.0289
*
*|NET VDD 8.93994e-16
*|P (VDD X 0 1.5250 4.1450)
*|I (MX19/M0#s MX19/M0 s X 0 1.8405 3.2800)
*|I (MX14/M0#s MX14/M0 s X 0 2.1795 3.2400)
*|I (MX11/M0#s MX11/M0 s X 0 0.9805 3.2800)
*|I (MX10/M0#s MX10/M0 s X 0 0.3995 3.2800)
*|I (MM0#s MM0 s X 0 1.2595 3.2800)
*|S (VDD#1 3.2195 4.1400)
*|S (VDD#2 2.0400 4.1400)
*|S (VDD#3 1.6100 4.1400)
*|S (VDD#4 1.6100 4.1400)
*|S (VDD#6 1.1200 4.1400)
*|S (VDD#7 0.1725 4.1400)
*|S (VDD#8 0.2600 4.0150)
*|S (VDD#10 0.2600 3.2800)
*|S (VDD#12 2.0400 3.2400)
*|S (VDD#14 1.1200 3.2800)
*|S (VDD#15 1.6100 4.1400)
CE1 MX10/M0#s VSS 3.65846e-19
CE2 MX11/M0#s VSS 1.17918e-18
CE3 MX19/M0#s VSS 1.94565e-19
CE4 VDD#15 VSS 4.36067e-18
CE5 VDD#7 VSS 1.21253e-19
CE6 VDD#6 VSS 1.80556e-18
CE7 VDD#2 VSS 2.6011e-18
CE8 VDD#3 VSS 1.99707e-18
CE9 VDD VSS 8.08918e-19
CE10 VDD 10#22 4.32929e-18
CE11 VDD#6 10#29 4.21462e-18
CE12 MX19/M0#s 10#27 3.87053e-18
CE13 VDD#2 10#24 3.75763e-18
CE14 VDD#3 MX19/M0#d 3.71864e-18
CE15 VDD#7 10#29 3.19071e-18
CE16 MX11/M0#s 10#28 2.54763e-18
CE17 VDD#6 MX11/M0#d 2.38086e-18
CE18 VDD#7 MX11/M0#d 2.10644e-18
CE19 VDD#15 10 1.98695e-18
CE20 MX19/M0#s 10#22 1.80476e-18
CE21 MX10/M0#s 10#28 1.68263e-18
CE22 VDD#6 10#22 1.35867e-18
CE23 VDD MX19/M0#d 1.16115e-18
CE24 VDD#15 MX11/M0#d 5.54391e-18
CE25 VDD#15 10#22 4.29223e-17
CE26 MX11/M0#s MX19/M0#d 2.50276e-17
CE27 MX19/M0#s MX19/M0#d 2.1591e-17
CE28 MX10/M0#s MX11/M0#d 2.61222e-17
CE29 VDD#15 10#24 2.00797e-17
CE30 VDD 10#29 1.52369e-17
CE31 MX19/M0#s 10#24 4.00811e-17
CE32 VDD#15 10#29 3.45028e-17
CE33 VDD 10#25 8.62822e-18
CE34 VDD 10#24 2.70515e-17
CE35 VDD 10 1.50821e-17
CE36 VDD#15 MX19/M0#d 5.62725e-18
CE37 VDD MX11/M0#d 5.77673e-18
CE38 MX19/M0#s 10 1.07289e-17
CE39 MX11/M0#s 10#29 1.25061e-17
CE40 VDD#2 10 5.81423e-18
CE41 MX11/M0#s MX11/M0#d 2.42954e-17
CE42 VDD#3 10#22 7.50394e-18
CE43 MX10/M0#s 10#29 8.2566e-18
CE44 MX11/M0#s 10#22 1.6942e-17
CE45 MX19/M0#s Y#7 3.82702e-18
CE46 VDD Y#7 2.74703e-18
CE47 VDD#15 Y#8 2.13697e-17
CE48 VDD#15 Y#7 1.99349e-17
CE49 VDD#2 MX14/M0#d 5.27357e-18
CE50 VDD Y#8 5.71597e-17
CE51 VDD Y 2.67922e-17
CE52 VDD#1 Y#8 5.60084e-18
CE53 VDD#2 Y#7 5.21673e-18
CE54 VDD#15 MX14/M0#d 5.59075e-18
CE55 VDD MX14/M0#d 6.19626e-18
CE56 MX19/M0#s MX14/M0#d 2.73196e-17
RfE29 VDD#1 VDD#2 60.115208 $L=1.1795 $W=0.25
RfE30 VDD#2 VDD#3 21.740810 $L=0.43 $W=0.25
RfE31 VDD#3 VDD#6 24.812811 $L=0.49 $W=0.25
RfE32 VDD#6 VDD#7 43.100529 $L=0.9475 $W=0.25
RfE33 VDD#7 VDD#8 3.709770 $L=0.1245 $W=0.345
RfE34 VDD#8 VDD#10 55.350452 $L=0.735 $W=0.17
RfE35 VDD#2 VDD#12 61.156857 $L=0.9 $W=0.17
RfE36 VDD#6 VDD#14 58.145092 $L=0.86 $W=0.17
ReE37 VDD#15 VDD 0.026563 $L=0.085 $W=0.4
Rh_1_E38 VDD#4 VDD#3 2.500000 $A=0.1734
Rh_2_E39 MX10/M0#s VDD#10 15.000000 $A=0.0289
Rh_2_E40 MX19/M0#s VDD#12 15.000000 $A=0.0289
Rh_2_E41 MX11/M0#s VDD#14 15.000000 $A=0.0289
RjE42 VDD#3 VDD#15 25.333334 $A=0.1734
RmwE43 MX14/M0#s MX19/M0#s 0.001000 $W=1000000
RmwE44 MM0#s MX11/M0#s 0.001000 $W=1000000
*
*|NET D 3.88735e-16
*|P (D X 0 0.4750 1.8050)
*|I (MX13/M0#g MX13/M0 g X 0 0.4750 0.8000)
*|I (MX10/M0#g MX10/M0 g X 0 0.4750 3.2800)
*|S (D#8 0.4750 1.3500)
*|S (D#9 0.4750 1.1850)
*|S (D#10 0.4750 1.3500)
*|S (D#11 0.4650 1.3500)
*|S (D#12 0.4650 1.3500)
CD1 MX13/M0#g VSS 1.53595e-17
CD2 D#12 VSS 2.65601e-17
CD3 D#11 VSS 2.37961e-17
CD4 D VSS 2.68112e-17
CD5 MX13/M0#g 15 7.13707e-18
CD6 D#11 15 1.14261e-17
CD7 MX13/M0#g 10#28 1.26882e-18
CD8 D#12 10#28 5.93246e-17
CD9 MX13/M0#g 10#11 6.91515e-18
CD10 D#12 10#11 3.318e-18
CD11 D#11 10#28 4.61036e-18
CD12 D#11 10#11 7.82105e-18
CD13 D 10#29 6.56318e-18
CD14 MX10/M0#g 10#29 3.26638e-18
CD15 MX10/M0#g MX11/M0#d 7.80118e-18
CD16 D#11 VSS#3 1.43084e-18
CD17 MX13/M0#g VSS#3 4.92109e-18
CD18 MX13/M0#g VSS#8 2.87869e-18
CD19 D VDD#7 1.63961e-18
CD20 MX10/M0#g MX11/M0#s 1.99409e-18
CD21 MX10/M0#g VDD#15 4.36034e-18
CD22 D MX10/M0#s 5.46559e-18
CD23 MX10/M0#g MX10/M0#s 1.01888e-17
CD24 MX10/M0#g VDD 1.20828e-17
CD25 D VDD 2.47967e-17
CD26 MX10/M0#g VDD#7 4.31255e-18
RgD22 MX10/M0#g D#8 601.332397 $L=1.93 $W=0.15
RgD23 D#8 D#9 34.134449 $L=0.1645 $W=0.27
RgD24 D#9 MX13/M0#g 123.757957 $L=0.385 $W=0.15
RfD25 D#10 D#11 0.752941 $L=0.01 $W=0.17
ReD26 D D#12 0.218750 $L=0.455 $W=0.26
RjD27 D#11 D#12 152.000000 $A=0.0289
RiD28 D#8 D#10 15.000000 $A=0.0289
*
*|NET VSS 9.18376e-16
*|P (VSS X 0 1.5250 0.0050)
*|I (MX15/M0#s MX15/M0 s X 0 2.1795 0.8000)
*|I (MX12/M0#s MX12/M0 s X 0 1.8405 0.8000)
*|S (VSS#1 3.2195 0.0000)
*|S (VSS#2 2.0400 0.0000)
*|S (VSS#3 1.6100 0.0000)
*|S (VSS#4 1.6100 0.0000)
*|S (VSS#7 2.0400 0.8000)
*|S (VSS#8 1.6100 0.0000)
RfF45 VSS#1 VSS#2 60.115208 $L=1.1795 $W=0.25
RfF46 VSS#2 VSS#3 21.740810 $L=0.43 $W=0.25
RfF47 VSS#2 VSS#7 53.627445 $L=0.8 $W=0.17
ReF48 VSS#8 VSS 0.026563 $L=0.085 $W=0.4
RhF49 MX15/M0#s VSS#7 15.000000 $A=0.0289
Rh_3_F50 VSS#4 VSS#3 2.500000 $A=0.1734
RjF51 VSS#3 VSS#8 25.333334 $A=0.1734
RmwF52 MX12/M0#s MX15/M0#s 0.001000 $W=1000000
*
*|NET 14 1.13316e-16
*|I (MX21/M0#s MX21/M0 s X 0 1.4105 0.8000)
*|I (MX12/M0#d MX12/M0 d X 0 1.6895 0.8000)
*|S (14 1.5500 0.8000)
CI1 14 VSS 6.28715e-18
CI2 14 16 1.81784e-17
CI3 14 VSS#3 6.01954e-18
CI4 14 MX15/M0#s 1.39532e-17
CI5 14 VSS#8 5.3607e-18
RmwI88 MX21/M0#s 14 0.001000 $W=1000000
RmwI89 MX12/M0#d 14 0.001000 $W=1000000
*
*|NET 15 1.12143e-16
*|I (MX20/M0#d MX20/M0 d X 0 0.8295 0.8000)
*|I (MX13/M0#s MX13/M0 s X 0 0.5505 0.8000)
*|S (15 0.6900 0.8000)
CI6 15 VSS 1.53393e-17
CI7 15 16 1.89112e-17
CI8 15 VSS#8 5.57185e-18
CI9 15 VSS#3 6.94388e-18
RmwI90 MX20/M0#d 15 0.001000 $W=1000000
RmwI91 MX13/M0#s 15 0.001000 $W=1000000
*
*|NET 16 1.11796e-16
*|I (MX21/M0#d MX21/M0 d X 0 1.2595 0.8000)
*|I (MX20/M0#s MX20/M0 s X 0 0.9805 0.8000)
*|S (16 1.1200 0.8000)
CJ1 16 VSS 1.6462e-17
CJ2 16 VSS#3 7.24085e-18
CJ3 16 VSS#8 5.57185e-18
RmwJ92 MX21/M0#d 16 0.001000 $W=1000000
RmwJ93 MX20/M0#s 16 0.001000 $W=1000000
*
*|NET B 4.59353e-16
*|P (B X 0 1.3950 1.6750)
*|I (MX21/M0#g MX21/M0 g X 0 1.3350 0.8000)
*|I (MM0#g MM0 g X 0 1.3350 3.2800)
*|S (B#8 1.3350 1.3500)
*|S (B#9 1.3350 1.1850)
*|S (B#10 1.3850 1.3500)
*|S (B#11 1.3350 1.3500)
*|S (B#12 1.3850 1.3500)
CB1 MX21/M0#g VSS 1.57051e-17
CB2 B#12 VSS 2.51134e-18
CB3 B#11 VSS 1.97079e-17
CB4 B VSS 1.22212e-17
CB5 MX21/M0#g 16 6.22723e-18
CB6 B#11 16 1.27102e-17
CB7 B#11 14 1.26115e-17
CB8 MX21/M0#g 14 6.22723e-18
CB9 B#12 14 4.10034e-18
CB10 B#11 10#22 2.10233e-18
CB11 MM0#g 10#22 1.67171e-18
CB12 MM0#g MX11/M0#d 1.26811e-18
CB13 B 10#22 1.19213e-17
CB14 B#11 10#27 7.67321e-18
CB15 B#12 10#27 6.07664e-17
CB16 B MX19/M0#d 3.25083e-18
CB17 MM0#g MX19/M0#d 6.79217e-18
CB18 B#11 10#28 2.99353e-18
CB19 B#11 VSS#3 1.36282e-18
CB20 MX21/M0#g MX15/M0#s 1.15203e-18
CB21 MX21/M0#g VSS#3 4.92109e-18
CB22 MX21/M0#g VSS#8 2.87869e-18
CB23 MM0#g MX19/M0#s 1.65694e-18
CB24 MM0#g VDD#6 1.6172e-18
CB25 MM0#g VDD#15 2.93352e-18
CB26 MM0#g VDD 1.58046e-17
CB27 MM0#g VDD#3 2.67609e-18
CB28 MM0#g MX11/M0#s 7.73375e-18
CB29 B VDD 7.85496e-18
CB30 B D 1.0033e-17
CB31 B#12 D#11 3.46161e-18
CB32 B#12 D#12 1.93197e-17
CB33 B#11 D#12 4.31118e-18
CB34 B D#12 2.65659e-18
CB35 B#11 D#11 3.88334e-18
CB36 B C 5.89924e-17
RgB8 MM0#g B#8 601.332397 $L=1.93 $W=0.15
RgB9 B#8 B#9 34.134449 $L=0.1645 $W=0.27
RgB10 B#9 MX21/M0#g 123.757957 $L=0.385 $W=0.15
RfB11 B#10 B#11 3.764706 $L=0.05 $W=0.17
ReB12 B B#12 0.156250 $L=0.325 $W=0.26
RjB13 B#10 B#12 152.000000 $A=0.0289
RiB14 B#8 B#11 15.000000 $A=0.0289
*
*Instance Section
*
MX21/M0	MX21/M0#d	MX21/M0#g	MX21/M0#s	VSS	nfet_01v8
+ L=1.5e-07	W=4.2e-07
MX20/M0	MX20/M0#d	MX20/M0#g	MX20/M0#s	VSS	nfet_01v8
+ L=1.5e-07	W=4.2e-07
MX15/M0	MX15/M0#d	MX15/M0#g	MX15/M0#s	VSS	nfet_01v8
+ L=1.5e-07	W=4.2e-07
MX13/M0	MX13/M0#d	MX13/M0#g	MX13/M0#s	VSS	nfet_01v8
+ L=1.5e-07	W=4.2e-07
MX12/M0	MX12/M0#d	MX12/M0#g	MX12/M0#s	VSS	nfet_01v8
+ L=1.5e-07	W=4.2e-07
MX19/M0	MX19/M0#d	MX19/M0#g	MX19/M0#s	VDD	pfet_01v8_hvt
+ L=1.5e-07	W=5.4e-07
MX14/M0	MX14/M0#d	MX14/M0#g	MX14/M0#s	VDD	pfet_01v8_hvt
+ L=1.5e-07	W=6.2e-07
MX11/M0	MX11/M0#d	MX11/M0#g	MX11/M0#s	VDD	pfet_01v8_hvt
+ L=1.5e-07	W=5.4e-07
MX10/M0	MX10/M0#d	MX10/M0#g	MX10/M0#s	VDD	pfet_01v8_hvt
+ L=1.5e-07	W=5.4e-07
MM0	MM0#d	MM0#g	MM0#s	VDD	pfet_01v8_hvt	L=1.5e-07
+ W=5.4e-07
.ENDS
