*
*|DSPF 1.5
*
*|DATE "Fri Feb 28 14:08:02 2025"
*|VENDOR "Cadence Design Systems"
*|PROGRAM "Cadence Quantus Extraction"
*|VERSION "22.1.0-p089 Linux 64 bit - (Thu Jan 19 11:47:08 PST 2023)"
*|DESIGN "AND4X2_LP"
*|DIVIDER /
*|DELIMITER #
*|DeviceFingerDelim "@"
*|BUSBIT []
*|GLOBAL_TEMPERATURE 25
*|OPERATING_TEMPERATURE 25
** QRC_TECH_DIR /vols/wfo_devel/projects/reference_SKY130/tech/sky130_release_0.0.4/quantus/extraction/typical 
** HIERARCHICAL_SPLIT_PINS_DELIMITER '%'
** caps2d version: 10
*
.SUBCKT  AND4X2_LP A B C D VDD VSS Y
*
*Net Section
*
*|GROUND_NET VSS
*
*|NET VSS 9.53407e-16
*|P (VSS X 0 1.5250 0.0050)
*|I (MX20/M0#s MX20/M0 s X 0 2.1795 1.0100)
*|I (MX12/M0#s MX12/M0 s X 0 1.8405 0.8000)
*|S (VSS#1 3.2195 0.0000)
*|S (VSS#2 2.0400 0.0000)
*|S (VSS#3 1.6100 0.0000)
*|S (VSS#4 1.6100 0.0000)
*|S (VSS#7 2.0400 1.0100)
*|S (VSS#8 1.6100 0.0000)
RfF45 VSS#1 VSS#2 60.115208 $L=1.1795 $W=0.25
RfF46 VSS#2 VSS#3 21.740810 $L=0.43 $W=0.25
RfF47 VSS#2 VSS#7 69.439209 $L=1.01 $W=0.17
ReF48 VSS#8 VSS 0.026563 $L=0.085 $W=0.4
RhF49 MX20/M0#s VSS#7 7.500000 $A=0.0578
Rh_3_F50 VSS#4 VSS#3 2.500000 $A=0.1734
RjF51 VSS#3 VSS#8 25.333334 $A=0.1734
RmwF52 MX12/M0#s MX20/M0#s 0.001000 $W=1000000
*
*|NET D 3.89698e-16
*|P (D X 0 0.4750 1.8050)
*|I (MX13/M0#g MX13/M0 g X 0 0.4750 0.8000)
*|I (MX10/M0#g MX10/M0 g X 0 0.4750 3.3900)
*|S (D#8 0.4750 1.3500)
*|S (D#9 0.4750 1.1850)
*|S (D#10 0.4750 1.3500)
*|S (D#11 0.4650 1.3500)
*|S (D#12 0.4650 1.3500)
CD1 MX10/M0#g VSS 2.28507e-19
CD2 MX13/M0#g VSS 1.55891e-17
CD3 D#12 VSS 2.6503e-17
CD4 D#11 VSS 2.19534e-17
CD5 D VSS 2.72876e-17
CD6 MX13/M0#g 15 7.13707e-18
CD7 D#11 15 1.14261e-17
CD8 MX13/M0#g 10#28 1.26882e-18
CD9 D#11 10#29 1.21869e-18
CD10 D#12 10#11 3.318e-18
CD11 MX10/M0#g 10#16 7.80118e-18
CD12 MX10/M0#g 10#29 3.34716e-18
CD13 D#11 10#28 4.61036e-18
CD14 D#12 10#28 5.93246e-17
CD15 D 10#29 6.56449e-18
CD16 MX13/M0#g 10#11 6.91515e-18
CD17 D#11 10#11 7.82105e-18
CD18 D#11 VSS#3 1.43084e-18
CD19 D#11 VSS#8 9.61026e-19
CD20 MX13/M0#g VSS#8 2.87869e-18
CD21 MX13/M0#g VSS#3 4.92109e-18
CD22 MX10/M0#g MX11/M0#s 1.89219e-18
CD23 MX10/M0#g VDD#7 5.2727e-18
CD24 D MX10/M0#s 4.89345e-18
CD25 MX10/M0#g VDD#15 4.64918e-18
CD26 MX10/M0#g MX10/M0#s 1.01888e-17
CD27 MX10/M0#g VDD 1.44576e-17
CD28 D VDD 2.56272e-17
RgD22 MX10/M0#g D#8 636.679077 $L=2.04 $W=0.15
RgD23 D#8 D#9 34.134449 $L=0.1645 $W=0.27
RgD24 D#9 MX13/M0#g 123.757957 $L=0.385 $W=0.15
RfD25 D#10 D#11 0.752941 $L=0.01 $W=0.17
ReD26 D D#12 0.218750 $L=0.455 $W=0.26
RjD27 D#11 D#12 152.000000 $A=0.0289
RiD28 D#8 D#10 15.000000 $A=0.0289
*
*|NET 16 1.11779e-16
*|I (MX19/M0#d MX19/M0 d X 0 1.2595 0.8000)
*|I (MX18/M0#s MX18/M0 s X 0 0.9805 0.8000)
*|S (16 1.1200 0.8000)
CJ1 16 VSS 1.61498e-17
CJ2 16 VSS#3 7.24085e-18
CJ3 16 VSS#8 5.57185e-18
RmwJ92 MX19/M0#d 16 0.001000 $W=1000000
RmwJ93 MX18/M0#s 16 0.001000 $W=1000000
*
*|NET A 5.03329e-16
*|P (A X 0 1.8400 2.2100)
*|I (MX12/M0#g MX12/M0 g X 0 1.7650 0.8000)
*|I (MX17/M0#g MX17/M0 g X 0 1.7650 3.3900)
*|S (A#8 1.7650 1.8750)
*|S (A#9 1.7650 1.7100)
*|S (A#10 1.7950 1.8750)
*|S (A#11 1.7650 1.8750)
*|S (A#12 1.7950 1.8750)
CA1 MX17/M0#g VSS 1.26778e-18
CA2 MX12/M0#g VSS 2.18424e-17
CA3 A#12 VSS 8.25045e-18
CA4 A#11 VSS 1.93861e-17
CA5 A VSS 3.2249e-18
CA6 MX12/M0#g 14 6.55076e-18
CA7 A#11 14 5.70437e-18
CA8 MX17/M0#g 10#22 1.63186e-18
CA9 A#12 10#21 3.88029e-18
CA10 A#12 10#27 2.80881e-17
CA11 MX17/M0#g 10#19 7.14575e-18
CA12 A 10#25 4.50719e-17
CA13 A 10#24 2.43621e-17
CA14 A 10#22 1.3925e-17
CA15 A#11 10#19 4.12459e-18
CA16 A#11 10#21 1.33494e-17
CA17 A#11 10#27 4.39173e-18
CA18 A#11 10#25 3.31408e-18
CA19 A#11 10#22 3.04091e-18
CA20 A#12 10#25 5.04464e-17
CA21 A#11 MX20/M0#s 3.45479e-18
CA22 MX12/M0#g VSS#3 5.74683e-18
CA23 A#12 MX20/M0#s 8.4513e-18
CA24 MX12/M0#g MX20/M0#s 6.93354e-18
CA25 MX12/M0#g VSS#8 2.87869e-18
CA26 MX17/M0#g MX11/M0#s 1.52572e-18
CA27 MX17/M0#g VDD 1.8492e-17
CA28 A MX21/M0#s 1.86923e-17
CA29 MX17/M0#g MX21/M0#s 8.39837e-18
CA30 A#11 MX21/M0#s 3.99727e-18
CA31 MX17/M0#g VDD#15 3.20679e-18
CA32 A VDD 1.15566e-17
CA33 MX17/M0#g VDD#3 7.2239e-18
CA34 A C#11 3.39439e-18
CA35 A C 1.51987e-17
CA36 A#12 B 4.32923e-17
CA37 A#11 B 1.00649e-17
CA38 A#12 B#12 1.90112e-17
CA39 A#12 B#11 3.15185e-18
CA40 A B 3.96587e-17
RgA1 MX17/M0#g A#8 467.979065 $L=1.515 $W=0.15
RgA2 A#8 A#9 34.134449 $L=0.1645 $W=0.27
RgA3 A#9 MX12/M0#g 292.457947 $L=0.91 $W=0.15
RfA4 A#10 A#11 2.258824 $L=0.03 $W=0.17
ReA5 A A#12 0.161058 $L=0.335 $W=0.26
RjA6 A#10 A#12 152.000000 $A=0.0289
RiA7 A#8 A#11 15.000000 $A=0.0289
*
*|NET 10 1.81826e-15
*|I (MX20/M0#g MX20/M0 g X 0 2.2550 1.0100)
*|I (MX13/M0#d MX13/M0 d X 0 0.3995 0.8000)
*|I (MX21/M0#g MX21/M0 g X 0 2.2550 3.0400)
*|I (MX17/M0#d MX17/M0 d X 0 1.6895 3.3900)
*|I (MX11/M0#d MX11/M0 d X 0 0.8295 3.3900)
*|I (MX10/M0#d MX10/M0 d X 0 0.5505 3.3900)
*|I (MM0#d MM0 d X 0 1.4105 3.3900)
*|S (10 2.2550 3.0400)
*|S (10#8 2.3150 2.0395)
*|S (10#9 2.3150 1.8750)
*|S (10#10 2.3150 1.7100)
*|S (10#11 0.2600 0.8000)
*|S (10#15 0.6900 3.3900)
*|S (10#16 0.6900 3.3850)
*|S (10#18 1.5500 3.3900)
*|S (10#19 1.5500 3.3850)
*|S (10#20 2.3150 1.8750)
*|S (10#21 2.2950 1.8750)
*|S (10#22 1.5500 3.3850)
*|S (10#23 2.2075 3.0995)
*|S (10#24 2.2075 2.8700)
*|S (10#25 2.2950 1.8750)
*|S (10#26 2.2075 1.2695)
*|S (10#27 2.2075 1.0400)
*|S (10#28 0.2600 0.8000)
*|S (10#29 0.6900 3.3850)
CH1 MX20/M0#g VSS 1.60102e-17
CH2 10#29 VSS 5.44473e-19
CH3 10#28 VSS 4.16482e-17
CH4 10#27 VSS 7.88838e-18
CH5 10#25 VSS 2.85652e-18
CH6 10#24 VSS 2.64432e-18
CH7 10#22 VSS 3.35324e-18
CH8 10#11 VSS 1.3626e-17
CH9 10#16 VSS 2.44889e-19
CH10 10#19 VSS 1.6154e-18
CH11 10#21 VSS 1.46709e-17
CH12 10 VSS 6.81516e-19
CH13 10#29 16 5.47464e-19
CH14 10#22 16 4.22781e-19
CH15 10#28 16 2.50136e-17
CH16 10#27 16 9.61095e-19
CH17 10#27 15 4.76407e-19
CH18 10#29 15 1.7769e-18
CH19 10#11 15 1.8398e-17
CH20 10#28 15 2.66323e-17
CH21 MX20/M0#g 14 2.08001e-18
CH22 10#22 14 7.45364e-19
CH23 10#27 14 2.46392e-17
CH24 MX20/M0#g VSS#8 2.13504e-18
CH25 10#28 VSS#8 5.95685e-17
CH26 MX20/M0#g MX20/M0#s 1.47937e-17
CH27 10#28 VSS#3 1.60245e-17
CH28 MX20/M0#g VSS#2 5.86975e-18
CH29 10#27 VSS#8 5.3377e-17
CH30 10#27 MX20/M0#s 5.03569e-17
CH31 10#11 VSS#3 7.23952e-18
CH32 10#27 VSS#3 7.43866e-18
CH33 10#11 VSS#8 5.56615e-18
CH34 10#27 VSS#2 4.25921e-18
RgH63 10 10#8 321.377960 $L=1 $W=0.15
RgH64 10#8 10#9 38.857975 $L=0.1645 $W=0.27
RgH65 10#9 10#10 29.410927 $L=0.1645 $W=0.27
RgH66 10#10 MX20/M0#g 224.977966 $L=0.7 $W=0.15
RfH67 10#15 10#16 0.376471 $L=0.005 $W=0.17
RfH68 10#18 10#19 0.376471 $L=0.005 $W=0.17
RfH69 10#20 10#21 1.505882 $L=0.02 $W=0.17
ReH70 10#22 10#23 0.398716 $L=0.835 $W=0.23
ReH71 10#23 10#24 0.137496 $L=0.229 $W=0.234
ReH72 10#24 10#25 0.478436 $L=0.995 $W=0.26
ReH73 10#25 10#26 0.290936 $L=0.605 $W=0.26
ReH74 10#26 10#27 0.133542 $L=0.229 $W=0.234
ReH75 10#27 10#28 1.075346 $L=2.08 $W=0.23
ReH76 10#22 10#29 0.467391 $L=0.86 $W=0.23
RhH77 MX13/M0#d 10#11 15.000000 $A=0.0289
Rh_2_H78 MX11/M0#d 10#15 15.000000 $A=0.0289
Rh_2_H79 MX17/M0#d 10#18 15.000000 $A=0.0289
RjH80 10#19 10#22 152.000000 $A=0.0289
RjH81 10#21 10#25 152.000000 $A=0.0289
RjH82 10#11 10#28 152.000000 $A=0.0289
RjH83 10#16 10#29 152.000000 $A=0.0289
RiH84 10#9 10#20 15.000000 $A=0.0289
RmwH85 MX21/M0#g 10 0.001000 $W=1000000
RmwH86 MX10/M0#d MX11/M0#d 0.001000 $W=1000000
RmwH87 MM0#d MX17/M0#d 0.001000 $W=1000000
*
*|NET C 4.17739e-16
*|P (C X 0 0.9350 2.4850)
*|I (MX18/M0#g MX18/M0 g X 0 0.9050 0.8000)
*|I (MX11/M0#g MX11/M0 g X 0 0.9050 3.3900)
*|S (C#8 0.9050 2.5900)
*|S (C#9 0.9050 2.4250)
*|S (C#10 0.9250 2.5900)
*|S (C#11 0.9050 2.5900)
*|S (C#12 0.9250 2.5900)
CC1 MX11/M0#g VSS 5.31222e-19
CC2 MX18/M0#g VSS 3.04829e-17
CC3 C#11 VSS 2.27073e-18
CC4 C VSS 1.3726e-17
CC5 MX11/M0#g 10#29 1.54282e-18
CC6 C 10#19 1.52126e-18
CC7 MX11/M0#g 10#19 1.3261e-18
CC8 MX18/M0#g 10#11 1.16947e-18
CC9 C#11 10 1.16334e-18
CC10 C MX11/M0#d 2.63484e-18
CC11 MX18/M0#g 10#28 2.31154e-18
CC12 C#11 10#29 3.96246e-18
CC13 C 10#16 4.11716e-18
CC14 MX11/M0#g 10#16 6.79273e-18
CC15 C#11 10#16 7.33371e-18
CC16 C 10#29 4.43594e-17
CC17 C 10#28 1.23201e-17
CC18 C 10#24 1.38883e-17
CC19 C#11 10#28 4.68851e-18
CC20 MX18/M0#g VSS#8 2.87869e-18
CC21 MX18/M0#g VSS#3 5.74683e-18
CC22 C VSS#3 2.28766e-18
CC23 C MX10/M0#s 1.86352e-18
CC24 MX11/M0#g MX10/M0#s 1.77988e-18
CC25 C#11 MX11/M0#s 5.90696e-18
CC26 C MX21/M0#s 6.23485e-18
CC27 C#11 VDD 2.45487e-17
CC28 MX11/M0#g VDD#15 3.20679e-18
CC29 MX11/M0#g MX11/M0#s 7.73431e-18
CC30 C VDD 3.16112e-17
CC31 C#11 MX21/M0#s 3.66519e-18
CC32 MX11/M0#g VDD#6 4.75627e-18
CC33 MX11/M0#g VDD 1.39318e-17
CC34 C MX11/M0#s 8.83876e-18
CC35 C D 5.90199e-17
RgC15 MX11/M0#g C#8 238.225739 $L=0.8 $W=0.15
RgC16 C#8 C#9 34.134449 $L=0.1645 $W=0.27
RgC17 C#9 MX18/M0#g 522.211304 $L=1.625 $W=0.15
RfC18 C#10 C#11 1.505882 $L=0.02 $W=0.17
ReC19 C C#12 0.050481 $L=0.105 $W=0.26
RjC20 C#10 C#12 152.000000 $A=0.0289
RiC21 C#8 C#11 15.000000 $A=0.0289
*
*|NET 14 1.10513e-16
*|I (MX19/M0#s MX19/M0 s X 0 1.4105 0.8000)
*|I (MX12/M0#d MX12/M0 d X 0 1.6895 0.8000)
*|S (14 1.5500 0.8000)
CI1 14 VSS 5.31186e-18
CI2 14 16 1.80226e-17
CI3 14 VSS#3 6.01954e-18
CI4 14 MX20/M0#s 1.66524e-17
CI5 14 VSS#8 5.3607e-18
RmwI88 MX19/M0#s 14 0.001000 $W=1000000
RmwI89 MX12/M0#d 14 0.001000 $W=1000000
*
*|NET 15 1.12245e-16
*|I (MX18/M0#d MX18/M0 d X 0 0.8295 0.8000)
*|I (MX13/M0#s MX13/M0 s X 0 0.5505 0.8000)
*|S (15 0.6900 0.8000)
CI6 15 VSS 1.49714e-17
CI7 15 16 1.89112e-17
CI8 15 VSS#8 5.57185e-18
CI9 15 VSS#3 6.94388e-18
RmwI90 MX18/M0#d 15 0.001000 $W=1000000
RmwI91 MX13/M0#s 15 0.001000 $W=1000000
*
*|NET VDD 9.42886e-16
*|P (VDD X 0 1.5250 4.1450)
*|I (MX21/M0#s MX21/M0 s X 0 2.1795 3.0400)
*|I (MX17/M0#s MX17/M0 s X 0 1.8405 3.3900)
*|I (MX11/M0#s MX11/M0 s X 0 0.9805 3.3900)
*|I (MX10/M0#s MX10/M0 s X 0 0.3995 3.3900)
*|I (MM0#s MM0 s X 0 1.2595 3.3900)
*|S (VDD#1 3.2195 4.1400)
*|S (VDD#2 2.0400 4.1400)
*|S (VDD#3 1.6100 4.1400)
*|S (VDD#4 1.6100 4.1400)
*|S (VDD#6 1.1200 4.1400)
*|S (VDD#7 0.1725 4.1400)
*|S (VDD#8 0.2600 4.0150)
*|S (VDD#10 0.2600 3.3900)
*|S (VDD#12 2.0400 3.0400)
*|S (VDD#14 1.1200 3.3900)
*|S (VDD#15 1.6100 4.1400)
CE1 MX11/M0#s VSS 3.32098e-19
CE2 MX21/M0#s VSS 2.64468e-18
CE3 VDD#15 VSS 2.80906e-18
CE4 VDD#7 VSS 4.76451e-19
CE5 VDD#6 VSS 3.08952e-18
CE6 VDD#2 VSS 2.47612e-18
CE7 VDD#3 VSS 1.64486e-18
CE8 VDD VSS 1.80925e-18
CE9 VDD 10#22 4.37536e-18
CE10 VDD#6 10#29 3.87532e-18
CE11 VDD#2 10#24 3.54719e-18
CE12 VDD#7 10#16 3.40882e-18
CE13 VDD#6 10#16 3.37556e-18
CE14 VDD#7 10#29 2.91166e-18
CE15 MX11/M0#s 10#28 2.47515e-18
CE16 MX21/M0#s 10#27 2.39372e-18
CE17 VDD#15 10 2.30299e-18
CE18 MX21/M0#s 10#22 1.80476e-18
CE19 MX10/M0#s 10#28 1.62059e-18
CE20 MX21/M0#s 10#25 1.59117e-18
CE21 MX11/M0#s 10#22 1.58427e-17
CE22 VDD 10#29 1.50183e-17
CE23 VDD 10#25 6.22169e-18
CE24 VDD#3 10#22 6.85827e-18
CE25 VDD 10#24 4.81522e-18
CE26 MX21/M0#s 10 2.23965e-17
CE27 VDD#15 10#19 5.88589e-18
CE28 VDD#2 10 7.17149e-18
CE29 MX21/M0#s 10#24 5.84258e-17
CE30 VDD 10 1.37292e-17
CE31 MX11/M0#s 10#19 2.54337e-17
CE32 VDD#15 10#22 4.25229e-17
CE33 VDD 10#16 4.97666e-18
CE34 VDD#3 10#19 6.81979e-18
CE35 MX11/M0#s 10#29 1.19876e-17
CE36 MX10/M0#s 10#29 8.2566e-18
CE37 MX10/M0#s 10#16 2.6709e-17
CE38 VDD#15 10#29 3.41628e-17
CE39 VDD#15 10#24 1.89145e-17
CE40 MX21/M0#s 10#19 2.21337e-17
CE41 VDD#15 10#16 5.79948e-18
CE42 MX11/M0#s 10#16 2.55928e-17
CE43 MX21/M0#s Y#7 4.02792e-18
CE44 VDD Y#7 1.9477e-18
CE45 VDD#2 MX21/M0#d 7.92428e-18
CE46 VDD#15 Y#7 1.97679e-17
CE47 VDD Y 2.52986e-17
CE48 MX21/M0#s MX21/M0#d 5.4261e-17
CE49 VDD MX21/M0#d 5.40302e-18
CE50 VDD Y#8 5.20126e-17
CE51 VDD#2 Y#7 4.78876e-18
CE52 VDD#1 Y#8 5.60084e-18
CE53 VDD#15 MX21/M0#d 5.64132e-18
CE54 VDD#15 Y#8 2.13697e-17
RfE29 VDD#1 VDD#2 60.115208 $L=1.1795 $W=0.25
RfE30 VDD#2 VDD#3 21.740810 $L=0.43 $W=0.25
RfE31 VDD#3 VDD#6 24.812811 $L=0.49 $W=0.25
RfE32 VDD#6 VDD#7 43.100529 $L=0.9475 $W=0.25
RfE33 VDD#7 VDD#8 3.709770 $L=0.1245 $W=0.345
RfE34 VDD#8 VDD#10 47.068096 $L=0.625 $W=0.17
RfE35 VDD#2 VDD#12 76.215675 $L=1.1 $W=0.17
RfE36 VDD#6 VDD#14 49.862736 $L=0.75 $W=0.17
ReE37 VDD#15 VDD 0.026563 $L=0.085 $W=0.4
Rh_1_E38 VDD#4 VDD#3 2.500000 $A=0.1734
Rh_2_E39 MX10/M0#s VDD#10 15.000000 $A=0.0289
Rh_2_E40 MX21/M0#s VDD#12 5.000000 $A=0.0867
Rh_2_E41 MX11/M0#s VDD#14 15.000000 $A=0.0289
RjE42 VDD#3 VDD#15 25.333334 $A=0.1734
RmwE43 MX17/M0#s MX21/M0#s 0.001000 $W=1000000
RmwE44 MM0#s MX11/M0#s 0.001000 $W=1000000
*
*|NET Y 8.61561e-16
*|P (Y X 0 2.7650 1.8250)
*|I (MX20/M0#d MX20/M0 d X 0 2.3305 1.0100)
*|I (MX21/M0#d MX21/M0 d X 0 2.3305 3.0400)
*|S (Y#1 2.4700 3.3850)
*|S (Y#3 2.4700 3.0400)
*|S (Y#5 2.4700 1.0100)
*|S (Y#6 2.4700 0.7550)
*|S (Y#7 2.4700 3.3850)
*|S (Y#8 2.7600 3.3850)
*|S (Y#9 2.7600 0.7550)
*|S (Y#10 2.4700 0.7550)
CG1 MX21/M0#d VSS 2.66262e-18
CG2 MX20/M0#d VSS 6.49263e-19
CG3 Y#10 VSS 6.69195e-18
CG4 Y#9 VSS 4.22111e-17
CG5 Y#7 VSS 2.92418e-18
CG6 Y#8 VSS 1.17565e-18
CG7 Y#6 VSS 3.31406e-18
CG8 Y VSS 3.88775e-17
CG9 Y#10 MX20/M0#g 1.88591e-18
CG10 Y#7 10 1.80508e-18
CG11 Y#9 10#27 3.69732e-17
CG12 Y 10#21 7.58826e-18
CG13 MX21/M0#d 10 2.23105e-17
CG14 Y#6 10#21 9.65535e-18
CG15 Y#7 10#24 5.4475e-17
CG16 Y#6 MX20/M0#g 1.509e-17
CG17 Y 10#27 1.47529e-17
CG18 MX21/M0#d 10#21 6.60481e-18
CG19 Y#8 10#24 5.84724e-17
CG20 Y 10#25 9.60351e-17
CG21 Y 10#24 9.40286e-18
CG22 Y#10 10#27 5.10367e-17
CG23 MX21/M0#d 10#25 4.96412e-18
CG24 Y#6 10#27 2.63579e-17
CG25 MX21/M0#d 10#24 3.2942e-17
CG26 Y#10 VSS#8 2.00006e-17
CG27 Y#9 VSS#1 5.60084e-18
CG28 Y#6 MX20/M0#s 3.66686e-17
CG29 Y#6 VSS#2 6.1405e-18
CG30 Y#9 VSS#8 2.13006e-17
CG31 Y#6 VSS#8 5.44861e-18
CG32 Y#10 MX20/M0#s 4.26436e-18
CG33 Y#10 VSS#2 5.23511e-18
RfG53 Y#1 Y#3 25.976471 $L=0.345 $W=0.17
RfG54 Y#5 Y#6 19.200001 $L=0.255 $W=0.17
ReG55 Y#7 Y#8 0.104021 $L=0.29 $W=0.29
ReG56 Y#8 Y 0.715344 $L=1.56 $W=0.26
ReG57 Y Y#9 0.479767 $L=1.07 $W=0.26
ReG58 Y#9 Y#10 0.104021 $L=0.29 $W=0.29
RhG59 MX20/M0#d Y#5 7.500000 $A=0.0578
Rh_2_G60 MX21/M0#d Y#3 5.000000 $A=0.0867
RjG61 Y#1 Y#7 152.000000 $A=0.0289
RjG62 Y#6 Y#10 152.000000 $A=0.0289
*
*|NET B 4.63763e-16
*|P (B X 0 1.3950 1.6750)
*|I (MX19/M0#g MX19/M0 g X 0 1.3350 0.8000)
*|I (MM0#g MM0 g X 0 1.3350 3.3900)
*|S (B#8 1.3350 1.3500)
*|S (B#9 1.3350 1.1850)
*|S (B#10 1.3850 1.3500)
*|S (B#11 1.3350 1.3500)
*|S (B#12 1.3850 1.3500)
CB1 MM0#g VSS 2.28507e-19
CB2 MX19/M0#g VSS 1.64749e-17
CB3 B#12 VSS 3.41528e-19
CB4 B#11 VSS 1.91001e-17
CB5 B VSS 1.24379e-17
CB6 B#11 16 1.27102e-17
CB7 MX19/M0#g 16 6.22723e-18
CB8 MX19/M0#g 14 6.22723e-18
CB9 B#12 14 4.10034e-18
CB10 B#11 14 9.09815e-18
CB11 MM0#g 10#22 1.83326e-18
CB12 MM0#g 10#16 1.32127e-18
CB13 MM0#g 10#19 6.79217e-18
CB14 B#11 10#28 2.99353e-18
CB15 B#11 10#27 5.08011e-18
CB16 B 10#22 1.19744e-17
CB17 B#11 10#22 2.39643e-18
CB18 B#12 10#27 5.86341e-17
CB19 B#11 MX20/M0#g 2.79866e-18
CB20 B 10#19 2.5238e-18
CB21 B#11 VSS#3 1.36282e-18
CB22 MX19/M0#g MX20/M0#s 1.34622e-18
CB23 B#12 MX20/M0#s 5.89655e-18
CB24 MX19/M0#g VSS#3 4.92109e-18
CB25 B#11 MX20/M0#s 6.64955e-18
CB26 MX19/M0#g VSS#8 2.87869e-18
CB27 MM0#g VDD#6 1.97726e-18
CB28 MM0#g MX21/M0#s 1.65694e-18
CB29 MM0#g VDD#15 3.20679e-18
CB30 MM0#g VDD 1.65588e-17
CB31 MM0#g VDD#3 3.2719e-18
CB32 MM0#g MX11/M0#s 7.73375e-18
CB33 B VDD 7.64597e-18
CB34 B D 1.0033e-17
CB35 B#12 D#12 1.8658e-17
CB36 B#12 D#11 3.46161e-18
CB37 B#11 D#12 4.03963e-18
CB38 B D#12 2.65659e-18
CB39 B#11 D#11 2.34223e-18
CB40 B C 5.89924e-17
RgB8 MM0#g B#8 636.679077 $L=2.04 $W=0.15
RgB9 B#8 B#9 34.134449 $L=0.1645 $W=0.27
RgB10 B#9 MX19/M0#g 123.757957 $L=0.385 $W=0.15
RfB11 B#10 B#11 3.764706 $L=0.05 $W=0.17
ReB12 B B#12 0.156250 $L=0.325 $W=0.26
RjB13 B#10 B#12 152.000000 $A=0.0289
RiB14 B#8 B#11 15.000000 $A=0.0289
*
*Instance Section
*
MX20/M0	MX20/M0#d	MX20/M0#g	MX20/M0#s	VSS	nfet_01v8
+ L=1.5e-07	W=8.4e-07
MX19/M0	MX19/M0#d	MX19/M0#g	MX19/M0#s	VSS	nfet_01v8
+ L=1.5e-07	W=4.2e-07
MX18/M0	MX18/M0#d	MX18/M0#g	MX18/M0#s	VSS	nfet_01v8
+ L=1.5e-07	W=4.2e-07
MX13/M0	MX13/M0#d	MX13/M0#g	MX13/M0#s	VSS	nfet_01v8
+ L=1.5e-07	W=4.2e-07
MX12/M0	MX12/M0#d	MX12/M0#g	MX12/M0#s	VSS	nfet_01v8
+ L=1.5e-07	W=4.2e-07
MX21/M0	MX21/M0#d	MX21/M0#g	MX21/M0#s	VDD	pfet_01v8_hvt
+ L=1.5e-07	W=1.24e-06
MX17/M0	MX17/M0#d	MX17/M0#g	MX17/M0#s	VDD	pfet_01v8_hvt
+ L=1.5e-07	W=5.4e-07
MX11/M0	MX11/M0#d	MX11/M0#g	MX11/M0#s	VDD	pfet_01v8_hvt
+ L=1.5e-07	W=5.4e-07
MX10/M0	MX10/M0#d	MX10/M0#g	MX10/M0#s	VDD	pfet_01v8_hvt
+ L=1.5e-07	W=5.4e-07
MM0	MM0#d	MM0#g	MM0#s	VDD	pfet_01v8_hvt	L=1.5e-07
+ W=5.4e-07
.ENDS
