*
*|DSPF 1.5
*
*|DATE "Fri Feb 28 14:01:52 2025"
*|VENDOR "Cadence Design Systems"
*|PROGRAM "Cadence Quantus Extraction"
*|VERSION "22.1.0-p089 Linux 64 bit - (Thu Jan 19 11:47:08 PST 2023)"
*|DESIGN "AOI221X1_LP"
*|DIVIDER /
*|DELIMITER #
*|DeviceFingerDelim "@"
*|BUSBIT []
*|GLOBAL_TEMPERATURE 25
*|OPERATING_TEMPERATURE 25
** QRC_TECH_DIR /vols/wfo_devel/projects/reference_SKY130/tech/sky130_release_0.0.4/quantus/extraction/typical 
** HIERARCHICAL_SPLIT_PINS_DELIMITER '%'
** caps2d version: 10
*
.SUBCKT  AOI221X1_LP A0 A1 B0 B1 C0 VDD VSS Y
*
*Net Section
*
*|GROUND_NET VSS
*
*|NET 13 5.42274e-16
*|I (MX25/M0#d MX25/M0 d X 0 1.6895 3.2400)
*|I (MX21/M0#s MX21/M0 s X 0 2.6395 3.2400)
*|I (MM0#d MM0 d X 0 1.4105 3.2400)
*|S (13 1.5500 3.2400)
*|S (13#2 1.5500 3.2400)
*|S (13#3 1.5500 2.9450)
*|S (13#5 2.5000 3.2400)
*|S (13#6 2.5000 2.9450)
*|S (13#7 2.5000 2.9450)
*|S (13#8 1.5500 2.9450)
CJ1 13#8 VSS 7.43318e-18
CJ2 13#7 VSS 5.89565e-18
CJ3 13#3 VSS 7.43585e-19
CJ4 13#6 VSS 1.81445e-18
CJ5 13 VSS 2.05415e-18
RfJ84 13#2 13#3 22.211765 $L=0.295 $W=0.17
RfJ85 13#5 13#6 22.211765 $L=0.295 $W=0.17
ReJ86 13#7 13#8 0.516304 $L=0.95 $W=0.23
Rh_2_J87 13 13#2 15.000000 $A=0.0289
Rh_2_J88 MX21/M0#s 13#5 15.000000 $A=0.0289
RjJ89 13#6 13#7 152.000000 $A=0.0289
RjJ90 13#3 13#8 152.000000 $A=0.0289
RmwJ91 MX25/M0#d 13 0.001000 $W=1000000
RmwJ92 MM0#d 13 0.001000 $W=1000000
*
*|NET Y 1.02134e-15
*|P (Y X 0 2.7800 1.5550)
*|I (MX24/M0#d MX24/M0 d X 0 1.2595 0.8000)
*|I (MX22/M0#d MX22/M0 d X 0 2.7905 0.8000)
*|I (MX20/M0#d MX20/M0 d X 0 0.9805 0.8000)
*|I (MX21/M0#d MX21/M0 d X 0 2.7905 3.2400)
*|S (Y#2 1.1200 0.8000)
*|S (Y#3 1.1200 0.7550)
*|S (Y#5 2.9300 3.2400)
*|S (Y#6 2.9300 3.0700)
*|S (Y#8 2.9300 0.8000)
*|S (Y#9 2.9300 0.7850)
*|S (Y#10 2.9300 3.0700)
*|S (Y#11 2.8450 2.5245)
*|S (Y#12 2.9300 0.7850)
*|S (Y#13 1.1200 0.7550)
CH1 Y#13 VSS 9.12217e-18
CH2 Y#12 VSS 4.46658e-17
CH3 Y#10 VSS 2.6667e-18
CH4 Y#11 VSS 2.50477e-18
CH5 Y#3 VSS 3.38741e-18
CH6 Y#9 VSS 5.39654e-18
CH7 Y#6 VSS 4.74418e-18
CH8 Y VSS 4.14565e-17
CH9 Y#13 17 2.56612e-17
CH10 Y#12 17 6.11612e-19
CH11 Y#3 16 1.84682e-17
CH12 Y#3 17 1.79066e-17
CH13 Y#13 16 6.38079e-18
CH14 Y#10 13#3 1.53078e-18
CH15 Y#13 13#3 1.15641e-18
CH16 Y#10 13#6 8.50665e-18
CH17 Y#6 13#6 1.16393e-17
CH18 Y#10 MX21/M0#s 3.07742e-18
CH19 Y#6 13#7 3.30082e-18
CH20 Y#10 13#7 4.4032e-17
CH21 Y#6 MX21/M0#s 2.26481e-17
CH22 Y#11 13#7 8.77644e-18
CH23 Y#9 VSS#1 4.23862e-18
CH24 Y#12 VSS#1 3.63486e-18
CH25 Y#13 MX19/M0#s 3.11501e-18
CH26 Y#12 VSS#3 2.09346e-18
CH27 Y#12 VSS#2 6.51312e-18
CH28 Y#3 VSS#4 7.24561e-18
CH29 Y#12 MX22/M0#s 2.99922e-17
CH30 Y#9 MX22/M0#s 1.83791e-17
CH31 Y#3 VSS#15 5.34249e-18
CH32 Y#12 VSS#15 6.44831e-17
CH33 Y#13 MX23/M0#s 1.12275e-17
CH34 Y#13 VSS#4 1.35716e-17
CH35 Y#12 MX23/M0#s 1.84666e-17
CH36 Y#9 VSS#15 5.39339e-18
CH37 Y#13 VSS#15 5.51882e-17
RfH58 Y#2 Y#3 3.388236 $L=0.045 $W=0.17
RfH59 Y#5 Y#6 12.800000 $L=0.17 $W=0.17
RfH60 Y#8 Y#9 1.129412 $L=0.015 $W=0.17
ReH61 Y#10 Y#11 0.262092 $L=0.545 $W=0.26
ReH62 Y#11 Y 0.301296 $L=0.9695 $W=0.43
ReH63 Y Y#12 0.223837 $L=0.77 $W=0.43
ReH64 Y#12 Y#13 0.983696 $L=1.81 $W=0.23
RhH65 MX24/M0#d Y#2 15.000000 $A=0.0289
RhH66 MX22/M0#d Y#8 15.000000 $A=0.0289
Rh_2_H67 MX21/M0#d Y#5 15.000000 $A=0.0289
RjH68 Y#6 Y#10 152.000000 $A=0.0289
RjH69 Y#9 Y#12 152.000000 $A=0.0289
RjH70 Y#3 Y#13 152.000000 $A=0.0289
RmwH71 MX20/M0#d MX24/M0#d 0.001000 $W=1000000
*
*|NET A1 4.89628e-16
*|P (A1 X 0 0.9350 2.0750)
*|I (MX20/M0#g MX20/M0 g X 0 0.9050 0.8000)
*|I (MX26/M0#g MX26/M0 g X 0 0.9050 3.2400)
*|S (A1#8 0.9150 2.1450)
*|S (A1#9 0.9150 1.9800)
*|S (A1#10 0.9250 2.1450)
*|S (A1#11 0.9150 2.1450)
*|S (A1#12 0.9250 2.1450)
CB1 MX26/M0#g VSS 4.07483e-18
CB2 MX20/M0#g VSS 2.25396e-17
CB3 A1#11 VSS 1.90255e-17
CB4 A1 VSS 1.26062e-17
CB5 A1#11 12#11 5.06497e-18
CB6 A1 12#11 1.60472e-17
CB7 MX26/M0#g 12#11 3.44852e-18
CB8 MX26/M0#g MX26/M0#d 7.79652e-18
CB9 A1#11 MX26/M0#d 6.55477e-18
CB10 A1 MX26/M0#d 3.27266e-18
CB11 A1#11 Y#3 2.26602e-18
CB12 A1 Y#3 3.6515e-18
CB13 A1 Y#13 9.62585e-18
CB14 MX20/M0#g Y#3 5.28565e-18
CB15 MX20/M0#g Y#13 2.57546e-18
CB16 A1#11 VSS#15 2.32191e-18
CB17 A1 VSS#7 2.14025e-18
CB18 MX20/M0#g MX19/M0#s 1.78376e-18
CB19 A1 VSS#15 8.48407e-18
CB20 MX20/M0#g VSS#7 3.06498e-18
CB21 MX20/M0#g VSS#4 2.6627e-18
CB22 MX20/M0#g VSS#15 3.30695e-18
CB23 MX26/M0#g MX26/M0#s 8.73809e-18
CB24 A1#11 MX26/M0#s 5.6844e-18
CB25 MX26/M0#g VDD#8 3.03366e-18
CB26 MX26/M0#g VDD 1.50165e-17
CB27 MX26/M0#g VDD#4 4.34129e-18
CB28 A1 VDD 2.79223e-17
CB29 A1#11 VDD 1.45538e-17
CB30 A1 B1#11 7.67176e-18
CB31 A1#11 B1#11 1.04749e-17
CB32 A1 B1 1.17777e-16
CB33 A1#11 B1 1.34108e-17
CB34 A1#11 B0#11 7.52763e-18
CB35 A1 B0 8.07124e-18
RgB8 MX26/M0#g A1#8 328.295532 $L=1.095 $W=0.15
RgB9 A1#8 A1#9 34.134449 $L=0.1645 $W=0.27
RgB10 A1#9 MX20/M0#g 379.217957 $L=1.18 $W=0.15
RfB11 A1#10 A1#11 0.752941 $L=0.01 $W=0.17
ReB12 A1#12 A1 0.033654 $L=0.07 $W=0.26
RjB13 A1#10 A1#12 152.000000 $A=0.0289
RiB14 A1#8 A1#11 15.000000 $A=0.0289
*
*|NET B1 5.4056e-16
*|P (B1 X 0 1.3950 1.5550)
*|I (MX24/M0#g MX24/M0 g X 0 1.3350 0.8000)
*|I (MM0#g MM0 g X 0 1.3350 3.2400)
*|S (B1#8 1.3350 1.6250)
*|S (B1#9 1.3350 1.4600)
*|S (B1#10 1.3850 1.6250)
*|S (B1#11 1.3350 1.6250)
*|S (B1#12 1.3850 1.6250)
CD1 MM0#g VSS 2.21336e-18
CD2 MX24/M0#g VSS 1.70985e-17
CD3 B1#11 VSS 2.18597e-17
CD4 B1 VSS 1.82248e-17
CD5 MX24/M0#g 17 5.28565e-18
CD6 B1 17 4.96624e-18
CD7 B1#11 17 6.98755e-18
CD8 MM0#g 13#8 2.08382e-18
CD9 B1#11 13#3 1.89006e-18
CD10 MM0#g 13#3 2.99309e-18
CD11 MM0#g 13 5.74389e-18
CD12 B1 13#8 1.02928e-17
CD13 B1 13#3 3.12675e-18
CD14 MM0#g 12#11 1.93181e-18
CD15 MM0#g MX25/M0#s 1.47354e-18
CD16 B1 12#11 8.673e-18
CD17 MM0#g MX26/M0#d 7.78396e-18
CD18 MX24/M0#g Y#13 2.10589e-18
CD19 B1#11 Y#3 5.48905e-18
CD20 B1 Y#13 3.46955e-17
CD21 B1#11 Y#13 6.94579e-18
CD22 MX24/M0#g Y#3 5.28565e-18
CD23 MX24/M0#g MX23/M0#s 1.20633e-18
CD24 MX24/M0#g VSS#4 5.74683e-18
CD25 MX24/M0#g VSS#15 2.80165e-18
CD26 MM0#g MX26/M0#s 1.73864e-18
CD27 MM0#g VDD#1 5.81423e-18
CD28 MM0#g VDD#8 3.03366e-18
CD29 MM0#g VDD 1.60949e-17
CD30 B1 VDD 4.15706e-18
CD31 B1#11 C0#11 5.15039e-18
CD32 B1 C0 7.41516e-18
RgD22 MM0#g B1#8 500.112427 $L=1.615 $W=0.15
RgD23 B1#8 B1#9 34.134449 $L=0.1645 $W=0.27
RgD24 B1#9 MX24/M0#g 212.124634 $L=0.66 $W=0.15
RfD25 B1#10 B1#11 3.764706 $L=0.05 $W=0.17
ReD26 B1#12 B1 0.033654 $L=0.07 $W=0.26
RjD27 B1#10 B1#12 152.000000 $A=0.0289
RiD28 B1#8 B1#11 15.000000 $A=0.0289
*
*|NET A0 4.169e-16
*|P (A0 X 0 0.4750 1.5550)
*|I (MX19/M0#g MX19/M0 g X 0 0.4750 0.8000)
*|I (MX18/M0#g MX18/M0 g X 0 0.4750 3.2400)
*|S (A0#8 0.4750 1.6250)
*|S (A0#9 0.4750 1.4600)
*|S (A0#10 0.4750 1.6250)
*|S (A0#11 0.4650 1.6250)
*|S (A0#12 0.4650 1.6250)
CA1 MX19/M0#g VSS 1.88524e-17
CA2 A0#11 VSS 3.44118e-17
CA3 A0 VSS 6.93839e-17
CA4 A0#11 16 6.47515e-18
CA5 A0 16 9.5096e-18
CA6 MX19/M0#g 16 6.05215e-18
CA7 MX18/M0#g MX26/M0#d 1.89988e-18
CA8 MX18/M0#g 12#12 1.88377e-18
CA9 MX18/M0#g MX18/M0#d 1.02286e-17
CA10 A0#11 MX18/M0#d 4.0786e-18
CA11 A0 MX18/M0#d 2.4836e-18
CA12 A0#11 12#12 4.82415e-18
CA13 A0 12#12 1.00798e-17
CA14 A0 Y#3 2.44242e-18
CA15 A0 Y#13 1.29298e-17
CA16 A0#11 MX19/M0#s 1.00577e-17
CA17 A0 MX19/M0#s 2.08913e-17
CA18 MX19/M0#g VSS#15 3.03073e-18
CA19 A0#11 VSS#15 5.1467e-18
CA20 A0 VSS#7 3.66244e-18
CA21 MX19/M0#g VSS#7 4.29097e-18
CA22 MX19/M0#g MX19/M0#s 8.16329e-18
CA23 A0 VSS#15 1.56671e-17
CA24 MX18/M0#g VDD#4 4.34129e-18
CA25 MX18/M0#g MX26/M0#s 1.00887e-17
CA26 MX18/M0#g VDD#8 3.03366e-18
CA27 A0#11 MX26/M0#s 3.71546e-18
CA28 MX18/M0#g VDD 1.60278e-17
CA29 A0#11 B1#11 4.14312e-18
CA30 A0 B1 1.12997e-17
CA31 A0#11 A1 7.28988e-18
CA32 A0 A1 9.05145e-17
RgA1 MX18/M0#g A0#8 500.112427 $L=1.615 $W=0.15
RgA2 A0#8 A0#9 34.134449 $L=0.1645 $W=0.27
RgA3 A0#9 MX19/M0#g 212.124634 $L=0.66 $W=0.15
RfA4 A0#10 A0#11 0.752941 $L=0.01 $W=0.17
ReA5 A0#12 A0 0.033654 $L=0.07 $W=0.26
RjA6 A0#11 A0#12 152.000000 $A=0.0289
RiA7 A0#8 A0#10 15.000000 $A=0.0289
*
*|NET VSS 1.03076e-15
*|P (VSS X 0 1.5250 0.0050)
*|I (MX23/M0#s MX23/M0 s X 0 1.8405 0.8000)
*|I (MX22/M0#s MX22/M0 s X 0 2.6395 0.8000)
*|I (MX19/M0#s MX19/M0 s X 0 0.3995 0.8000)
*|S (VSS#1 3.2195 0.0000)
*|S (VSS#2 2.5000 0.0000)
*|S (VSS#3 1.9800 0.0000)
*|S (VSS#4 1.6100 0.0000)
*|S (VSS#5 1.6100 0.0000)
*|S (VSS#7 0.1725 0.0000)
*|S (VSS#8 0.2600 0.1245)
*|S (VSS#10 0.2600 0.8000)
*|S (VSS#12 2.5000 0.8000)
*|S (VSS#14 1.9800 0.8000)
*|S (VSS#15 1.6100 0.0000)
RfG44 VSS#1 VSS#2 36.563213 $L=0.7195 $W=0.25
RfG45 VSS#2 VSS#3 26.073622 $L=0.52 $W=0.25
RfG46 VSS#3 VSS#4 18.668810 $L=0.37 $W=0.25
RfG47 VSS#4 VSS#7 68.463715 $L=1.4375 $W=0.25
RfG48 VSS#7 VSS#8 3.709770 $L=0.1245 $W=0.345
RfG49 VSS#8 VSS#10 50.832806 $L=0.675 $W=0.17
RfG50 VSS#2 VSS#12 53.627445 $L=0.8 $W=0.17
RfG51 VSS#3 VSS#14 53.627445 $L=0.8 $W=0.17
ReG52 VSS#15 VSS 0.026563 $L=0.085 $W=0.4
RhG53 MX19/M0#s VSS#10 15.000000 $A=0.0289
RhG54 MX22/M0#s VSS#12 15.000000 $A=0.0289
RhG55 MX23/M0#s VSS#14 15.000000 $A=0.0289
Rh_3_G56 VSS#5 VSS#4 2.500000 $A=0.1734
RjG57 VSS#4 VSS#15 25.333334 $A=0.1734
*
*|NET VDD 7.69846e-16
*|P (VDD X 0 1.5250 4.1450)
*|I (MX26/M0#s MX26/M0 s X 0 0.8295 3.2400)
*|I (MX18/M0#s MX18/M0 s X 0 0.5505 3.2400)
*|S (VDD#1 1.6100 4.1400)
*|S (VDD#2 1.6100 4.1400)
*|S (VDD#4 0.6900 4.1400)
*|S (VDD#5 0.0000 4.1400)
*|S (VDD#7 0.6900 3.2400)
*|S (VDD#8 1.6100 4.1400)
CF1 MX26/M0#s VSS 4.17864e-19
CF2 VDD#8 VSS 5.37012e-18
CF3 VDD#4 VSS 2.48049e-18
CF4 VDD#1 VSS 7.33265e-18
CF5 MX26/M0#s 13#8 2.36282e-18
CF6 VDD 13#6 1.05744e-17
CF7 VDD#1 MX21/M0#s 7.33108e-18
CF8 VDD#1 13#7 5.17688e-18
CF9 VDD#8 13#7 1.66939e-17
CF10 VDD 13#8 1.20549e-17
CF11 VDD#1 13 7.33108e-18
CF12 VDD 13#7 5.36742e-18
CF13 VDD#8 MX21/M0#s 6.40885e-18
CF14 VDD#8 13 5.34862e-18
CF15 VDD 13#3 1.10903e-17
CF16 VDD#4 MX26/M0#d 2.64718e-18
CF17 VDD#1 MX26/M0#d 2.49747e-18
CF18 VDD 12#11 2.13082e-18
CF19 VDD MX18/M0#d 1.4627e-17
CF20 VDD#8 12#11 4.54804e-17
CF21 VDD#8 MX25/M0#s 5.6093e-18
CF22 VDD#4 12#11 4.50727e-18
CF23 MX26/M0#s 12#12 1.49157e-17
CF24 VDD#1 MX25/M0#s 7.29445e-18
CF25 VDD#4 12#12 3.9992e-18
CF26 VDD#1 12#10 8.91681e-18
CF27 VDD#5 MX18/M0#d 4.65904e-18
CF28 VDD 12#12 3.40459e-17
CF29 MX26/M0#s 12#11 1.51138e-17
CF30 VDD 12#10 5.77643e-18
CF31 VDD#8 12#12 3.51058e-17
CF32 VDD#8 12#10 3.41724e-17
CF33 VDD#8 MX26/M0#d 5.5912e-18
CF34 VDD#5 12#12 3.95194e-18
CF35 MX26/M0#s MX26/M0#d 2.84449e-17
CF36 VDD#8 MX18/M0#d 5.73008e-18
CF37 VDD#1 12#11 6.24982e-18
CF38 MX26/M0#s MX18/M0#d 2.98708e-17
CF39 VDD#1 Y#10 3.53766e-18
CF40 VDD Y#12 2.43144e-18
CF41 VDD Y#13 2.27948e-18
CF42 VDD#1 Y#6 7.29965e-18
CF43 VDD Y#10 2.49471e-17
CF44 VDD Y#11 4.68566e-17
CF45 VDD#8 Y#10 1.4127e-17
CF46 VDD Y#6 1.69321e-17
CF47 VDD#8 Y#6 7.09043e-18
RfF36 VDD#1 VDD#4 46.828812 $L=0.92 $W=0.25
RfF37 VDD#4 VDD#5 35.052811 $L=0.69 $W=0.25
RfF38 VDD#4 VDD#7 61.156857 $L=0.9 $W=0.17
ReF39 VDD#8 VDD 0.026563 $L=0.085 $W=0.4
Rh_1_F40 VDD#2 VDD#1 2.500000 $A=0.1734
Rh_2_F41 MX26/M0#s VDD#7 15.000000 $A=0.0289
RjF42 VDD#1 VDD#8 25.333334 $A=0.1734
RmwF43 MX18/M0#s MX26/M0#s 0.001000 $W=1000000
*
*|NET B0 5.29808e-16
*|P (B0 X 0 1.8550 2.0750)
*|I (MX23/M0#g MX23/M0 g X 0 1.7650 0.8000)
*|I (MX25/M0#g MX25/M0 g X 0 1.7650 3.2400)
*|S (B0#8 1.7650 2.1450)
*|S (B0#9 1.7650 1.9800)
*|S (B0#10 1.8450 2.1450)
*|S (B0#11 1.7650 2.1450)
*|S (B0#12 1.8450 2.1450)
CC1 MX25/M0#g VSS 3.05111e-18
CC2 MX23/M0#g VSS 2.29631e-17
CC3 B0#11 VSS 9.60988e-18
CC4 B0 VSS 1.22712e-17
CC5 MX25/M0#g MX21/M0#s 1.72677e-18
CC6 MX25/M0#g 13#8 1.69839e-18
CC7 B0#11 13#8 5.56135e-18
CC8 MX25/M0#g 13#3 3.11379e-18
CC9 B0#11 13#7 5.32631e-18
CC10 MX25/M0#g 13 6.01889e-18
CC11 B0 13#8 3.22843e-17
CC12 B0#11 13#3 4.81219e-18
CC13 MX25/M0#g MX26/M0#d 1.53847e-18
CC14 B0#11 MX25/M0#s 3.41273e-18
CC15 MX25/M0#g MX25/M0#s 8.94274e-18
CC16 B0 MX25/M0#s 2.99147e-18
CC17 B0#11 Y#11 2.36279e-18
CC18 MX23/M0#g Y#13 2.20278e-18
CC19 B0#11 Y#12 1.75565e-18
CC20 B0#11 Y#13 1.51836e-18
CC21 B0 Y#13 1.46e-17
CC22 B0 Y#12 3.06037e-18
CC23 B0 Y#11 1.07024e-17
CC24 MX23/M0#g MX22/M0#s 1.93416e-18
CC25 MX23/M0#g VSS#15 2.80165e-18
CC26 B0 MX23/M0#s 4.70015e-18
CC27 B0#11 MX23/M0#s 4.23926e-18
CC28 MX23/M0#g MX23/M0#s 7.16335e-18
CC29 MX23/M0#g VSS#4 4.00011e-18
CC30 B0#11 VDD 1.47426e-17
CC31 MX25/M0#g VDD 1.78722e-17
CC32 MX25/M0#g VDD#8 3.03366e-18
CC33 MX25/M0#g VDD#1 5.81423e-18
CC34 B0 VDD 7.58214e-18
CC35 B0 C0#11 5.63606e-18
CC36 B0#11 C0#11 7.14619e-18
CC37 B0#11 C0 1.04627e-17
CC38 B0 C0 1.10082e-16
CC39 B0#11 B1#11 1.03612e-17
CC40 B0 B1#11 1.29705e-17
CC41 B0#11 B1 6.97933e-18
CC42 B0 B1 1.11801e-16
CC43 MX23/M0#g B1#11 3.36089e-18
RgC15 MX25/M0#g B0#8 333.019073 $L=1.095 $W=0.15
RgC16 B0#8 B0#9 34.134449 $L=0.1645 $W=0.27
RgC17 B0#9 MX23/M0#g 379.217957 $L=1.18 $W=0.15
RfC18 B0#10 B0#11 6.023530 $L=0.08 $W=0.17
ReC19 B0#12 B0 0.033654 $L=0.07 $W=0.26
RjC20 B0#10 B0#12 152.000000 $A=0.0289
RiC21 B0#8 B0#11 15.000000 $A=0.0289
*
*|NET C0 5.42497e-16
*|P (C0 X 0 2.3150 1.5550)
*|I (MX22/M0#g MX22/M0 g X 0 2.7150 0.8000)
*|I (MX21/M0#g MX21/M0 g X 0 2.7150 3.2400)
*|S (C0#8 2.7150 1.6250)
*|S (C0#9 2.7150 1.4600)
*|S (C0#10 2.7150 1.6250)
*|S (C0#11 2.3050 1.6250)
*|S (C0#12 2.3050 1.6250)
CE1 MX21/M0#g VSS 3.55604e-18
CE2 MX22/M0#g VSS 1.71405e-17
CE3 C0#10 VSS 1.56383e-17
CE4 C0#11 VSS 1.46686e-17
CE5 C0 VSS 2.39505e-17
CE6 C0 13#6 2.51688e-18
CE7 MX21/M0#g 13#7 2.00908e-18
CE8 C0#11 13#6 1.46006e-18
CE9 C0#10 13#6 2.78445e-18
CE10 MX21/M0#g MX21/M0#s 7.9592e-18
CE11 C0#11 13#7 3.01531e-18
CE12 MX21/M0#g 13#6 4.00854e-18
CE13 C0 13#7 1.42674e-17
CE14 MX21/M0#g Y#11 2.3221e-18
CE15 MX21/M0#g Y#10 2.25262e-18
CE16 MX22/M0#g Y#12 1.39415e-18
CE17 C0#10 Y#9 3.93678e-18
CE18 MX21/M0#g Y#6 1.20502e-17
CE19 C0#11 Y#12 5.00392e-18
CE20 C0 Y 8.61875e-17
CE21 C0 Y#12 3.90054e-17
CE22 C0#10 Y 3.24169e-17
CE23 C0 Y#11 3.80405e-17
CE24 MX22/M0#g Y#9 7.20199e-18
CE25 MX22/M0#g MX23/M0#s 2.61918e-18
CE26 C0#11 VSS#15 1.04846e-18
CE27 C0#11 MX22/M0#s 3.64425e-18
CE28 MX22/M0#g VSS#15 2.80165e-18
CE29 MX22/M0#g VSS#2 4.29097e-18
CE30 C0 MX22/M0#s 4.581e-18
CE31 MX22/M0#g MX22/M0#s 8.15764e-18
CE32 C0#10 MX22/M0#s 5.38832e-18
CE33 MX21/M0#g VDD#8 2.54569e-18
CE34 MX21/M0#g VDD#1 5.81423e-18
CE35 MX21/M0#g VDD 6.24606e-18
CE36 C0 VDD 6.67958e-18
RgE29 MX21/M0#g C0#8 500.112427 $L=1.615 $W=0.15
RgE30 C0#8 C0#9 34.134449 $L=0.1645 $W=0.27
RgE31 C0#9 MX22/M0#g 212.124634 $L=0.66 $W=0.15
RfE32 C0#10 C0#11 30.870588 $L=0.41 $W=0.17
ReE33 C0#12 C0 0.033654 $L=0.07 $W=0.26
RjE34 C0#11 C0#12 152.000000 $A=0.0289
RiE35 C0#8 C0#10 15.000000 $A=0.0289
*
*|NET 16 9.60699e-17
*|I (MX20/M0#s MX20/M0 s X 0 0.8295 0.8000)
*|I (MX19/M0#d MX19/M0 d X 0 0.5505 0.8000)
*|S (16 0.6900 0.7900)
CK1 16 VSS 1.35629e-17
CK2 16 VSS#7 6.01853e-18
CK3 16 MX19/M0#s 2.03572e-17
CK4 16 VSS#15 9.24537e-18
RmwK93 MX20/M0#s 16 0.001000 $W=1000000
RmwK94 MX19/M0#d 16 0.001000 $W=1000000
*
*|NET 17 9.86995e-17
*|I (MX24/M0#s MX24/M0 s X 0 1.4105 0.8000)
*|I (MX23/M0#d MX23/M0 d X 0 1.6895 0.8000)
*|S (17 1.5500 0.7900)
CK5 17 VSS 8.28082e-18
CK6 17 MX23/M0#s 1.90057e-17
CK7 17 VSS#15 5.09681e-18
CK8 17 VSS#4 4.89739e-18
RmwK95 MX24/M0#s 17 0.001000 $W=1000000
RmwK96 MX23/M0#d 17 0.001000 $W=1000000
*
*|NET 12 6.6396e-16
*|I (MX26/M0#d MX26/M0 d X 0 0.9805 3.2400)
*|I (MX25/M0#s MX25/M0 s X 0 1.8405 3.2400)
*|I (MX18/M0#d MX18/M0 d X 0 0.3995 3.2400)
*|I (MM0#s MM0 s X 0 1.2595 3.2400)
*|S (12 0.2600 3.3850)
*|S (12#3 0.2600 3.2400)
*|S (12#4 1.1200 3.3850)
*|S (12#6 1.1200 3.2400)
*|S (12#7 1.9800 3.3850)
*|S (12#9 1.9800 3.2400)
*|S (12#10 1.9800 3.3850)
*|S (12#11 1.1200 3.3850)
*|S (12#12 0.2600 3.3850)
CI1 MX18/M0#d VSS 4.77124e-18
CI2 MX25/M0#s VSS 5.48355e-18
CI3 MX26/M0#d VSS 1.71855e-18
CI4 12#12 VSS 1.01564e-18
CI5 12#11 VSS 4.42401e-18
CI6 12#10 VSS 5.56726e-18
CI7 MX25/M0#s 13#6 6.5623e-18
CI8 12#11 13 1.03283e-17
CI9 MX25/M0#s 13#8 9.82445e-18
CI10 MX25/M0#s 13 2.05491e-17
CI11 MX26/M0#d 13#8 5.2088e-18
CI12 12#10 13 1.02828e-17
CI13 MX25/M0#s 13#3 9.47491e-18
CI14 MX26/M0#d 13 2.05491e-17
CI15 MX25/M0#s 13#7 7.52378e-18
CI16 12#11 13#8 1.32159e-17
CI17 12#10 13#8 4.38018e-17
CI18 12#10 13#7 1.61631e-17
CI19 MX25/M0#s MX21/M0#s 1.47946e-17
CI20 MX26/M0#d 13#3 1.00199e-17
CI21 12#10 MX21/M0#s 6.93256e-18
RfI72 12 12#3 10.917646 $L=0.145 $W=0.17
RfI73 12#4 12#6 10.917646 $L=0.145 $W=0.17
RfI74 12#7 12#9 10.917646 $L=0.145 $W=0.17
ReI75 12#10 12#11 0.467391 $L=0.86 $W=0.23
ReI76 12#11 12#12 0.467391 $L=0.86 $W=0.23
Rh_2_I77 MX18/M0#d 12#3 15.000000 $A=0.0289
Rh_2_I78 MX26/M0#d 12#6 15.000000 $A=0.0289
Rh_2_I79 MX25/M0#s 12#9 15.000000 $A=0.0289
RjI80 12#7 12#10 152.000000 $A=0.0289
RjI81 12#4 12#11 152.000000 $A=0.0289
RjI82 12 12#12 152.000000 $A=0.0289
RmwI83 MM0#s MX26/M0#d 0.001000 $W=1000000
*
*Instance Section
*
MX24/M0	MX24/M0#d	MX24/M0#g	MX24/M0#s	VSS	nfet_01v8
+ L=1.5e-07	W=4.2e-07
MX23/M0	MX23/M0#d	MX23/M0#g	MX23/M0#s	VSS	nfet_01v8
+ L=1.5e-07	W=4.2e-07
MX22/M0	MX22/M0#d	MX22/M0#g	MX22/M0#s	VSS	nfet_01v8
+ L=1.5e-07	W=4.2e-07
MX20/M0	MX20/M0#d	MX20/M0#g	MX20/M0#s	VSS	nfet_01v8
+ L=1.5e-07	W=4.2e-07
MX19/M0	MX19/M0#d	MX19/M0#g	MX19/M0#s	VSS	nfet_01v8
+ L=1.5e-07	W=4.2e-07
MX26/M0	MX26/M0#d	MX26/M0#g	MX26/M0#s	VDD	pfet_01v8_hvt
+ L=1.5e-07	W=6.2e-07
MX25/M0	MX25/M0#d	MX25/M0#g	MX25/M0#s	VDD	pfet_01v8_hvt
+ L=1.5e-07	W=6.2e-07
MX21/M0	MX21/M0#d	MX21/M0#g	MX21/M0#s	VDD	pfet_01v8_hvt
+ L=1.5e-07	W=6.2e-07
MX18/M0	MX18/M0#d	MX18/M0#g	MX18/M0#s	VDD	pfet_01v8_hvt
+ L=1.5e-07	W=6.2e-07
MM0	MM0#d	MM0#g	MM0#s	VDD	pfet_01v8_hvt	L=1.5e-07
+ W=6.2e-07
.ENDS
