*
*|DSPF 1.5
*
*|DATE "Fri Feb 28 14:05:42 2025"
*|VENDOR "Cadence Design Systems"
*|PROGRAM "Cadence Quantus Extraction"
*|VERSION "22.1.0-p089 Linux 64 bit - (Thu Jan 19 11:47:08 PST 2023)"
*|DESIGN "AOI211X2_LP"
*|DIVIDER /
*|DELIMITER #
*|DeviceFingerDelim "@"
*|BUSBIT []
*|GLOBAL_TEMPERATURE 25
*|OPERATING_TEMPERATURE 25
** QRC_TECH_DIR /vols/wfo_devel/projects/reference_SKY130/tech/sky130_release_0.0.4/quantus/extraction/typical 
** HIERARCHICAL_SPLIT_PINS_DELIMITER '%'
** caps2d version: 10
*
.SUBCKT  AOI211X2_LP A0 A1 B0 C0 VDD VSS Y
*
*Net Section
*
*|GROUND_NET VSS
*
*|NET A0 5.1693e-16
*|P (A0 X 0 0.9350 1.6950)
*|I (MX20/M0#g MX20/M0 g X 0 0.9050 0.9300)
*|I (MX21/M0#g MX21/M0 g X 0 0.9050 3.0400)
*|S (A0#8 0.9050 1.6250)
*|S (A0#9 0.9050 1.4600)
*|S (A0#10 0.9200 1.6250)
*|S (A0#11 0.9050 1.6250)
*|S (A0#12 0.9200 1.6250)
CA1 MX21/M0#g VSS 3.39279e-18
CA2 MX20/M0#g VSS 1.56291e-17
CA3 A0#12 VSS 1.6381e-17
CA4 A0#11 VSS 1.48181e-17
CA5 A0#11 11 1.41702e-17
CA6 A0#12 11 1.39492e-17
CA7 MX20/M0#g 11 1.04497e-17
CA8 A0#11 1#8 2.43015e-18
CA9 MX21/M0#g MX21/M0#d 1.55836e-17
CA10 A0#12 MX21/M0#d 6.10415e-18
CA11 MX21/M0#g MX22/M0#d 4.19311e-18
CA12 A0#12 1#8 1.39845e-17
CA13 A0#11 MX21/M0#d 3.3748e-18
CA14 MX21/M0#g 1#8 3.32816e-18
CA15 MX20/M0#g Y#6 2.12457e-18
CA16 A0#11 Y#15 1.73514e-18
CA17 A0#11 Y#14 1.07456e-18
CA18 A0#12 Y#1 4.40235e-18
CA19 A0#12 Y#13 5.96861e-18
CA20 A0#12 Y#14 1.40514e-17
CA21 A0#12 Y#6 3.68333e-18
CA22 A0#12 Y#15 2.92956e-17
CA23 MX20/M0#g Y#1 2.79051e-18
CA24 MX20/M0#g VSS#6 5.07189e-18
CA25 A0#11 MX20/M0#s 1.49272e-17
CA26 A0#12 MX20/M0#s 1.93112e-17
CA27 MX20/M0#g VSS#12 2.94999e-18
CA28 MX20/M0#g MX20/M0#s 1.19574e-17
CA29 MX21/M0#g VDD#8 2.37373e-18
CA30 MX21/M0#g VDD 9.67409e-18
CA31 A0#11 MX22/M0#s 4.04555e-18
CA32 A0#12 VDD 3.95782e-18
CA33 MX21/M0#g VDD#4 5.35471e-18
CA34 MX21/M0#g MX22/M0#s 1.65218e-17
CA35 A0#12 C0#11 2.03957e-18
CA36 A0#12 C0#12 1.20818e-17
CA37 A0#11 C0#11 3.5441e-18
CA38 A0#12 B0 8.6343e-17
CA39 A0#12 B0#11 7.40947e-18
CA40 A0#11 B0 5.79126e-18
CA41 A0#12 A1#11 6.75814e-18
CA42 A0#11 A1 6.83037e-18
CA43 A0#12 A1 8.70725e-17
RgA1 MX21/M0#g A0#8 435.845734 $L=1.415 $W=0.15
RgA2 A0#8 A0#9 34.134449 $L=0.1645 $W=0.27
RgA3 A0#9 MX20/M0#g 170.351288 $L=0.53 $W=0.15
RfA4 A0#10 A0#11 1.129412 $L=0.015 $W=0.17
ReA5 A0#12 A0 0.033654 $L=0.07 $W=0.26
RjA6 A0#10 A0#12 152.000000 $A=0.0289
RiA7 A0#8 A0#11 15.000000 $A=0.0289
*
*|NET B0 5.4519e-16
*|P (B0 X 0 1.3950 2.2150)
*|I (MX19/M0#g MX19/M0 g X 0 1.3350 0.9300)
*|I (MM0#g MM0 g X 0 1.3350 3.0400)
*|S (B0#8 1.3350 2.1450)
*|S (B0#9 1.3350 1.9800)
*|S (B0#10 1.3800 2.1450)
*|S (B0#11 1.3350 2.1450)
*|S (B0#12 1.3800 2.1450)
CC1 MM0#g VSS 3.19072e-18
CC2 MX19/M0#g VSS 1.7605e-17
CC3 B0#11 VSS 9.09544e-18
CC4 B0 VSS 7.097e-18
CC5 MM0#g 14 1.5087e-17
CC6 B0 14 2.78548e-17
CC7 B0#11 14 1.6108e-17
CC8 B0#11 1#8 2.7082e-18
CC9 B0#11 MX21/M0#d 1.40072e-17
CC10 MM0#g MX21/M0#d 1.5918e-17
CC11 B0 MX21/M0#d 1.34641e-17
CC12 B0 Y#7 2.42422e-18
CC13 B0 MX18/M0#d 1.94912e-18
CC14 B0#11 Y 1.65913e-18
CC15 MX19/M0#g Y#6 1.05585e-17
CC16 MM0#g MX18/M0#d 3.63403e-18
CC17 B0 Y#14 1.64202e-17
CC18 B0 Y#11 6.51727e-18
CC19 B0 Y#12 6.9592e-18
CC20 B0#11 Y#6 3.80204e-18
CC21 B0#11 Y#14 3.12906e-18
CC22 MX19/M0#g Y#14 3.89883e-18
CC23 B0 Y#6 6.65124e-18
CC24 MX19/M0#g MX16/M0#s 2.71898e-18
CC25 MX19/M0#g VSS#3 6.79271e-18
CC26 MX19/M0#g VSS#12 3.45211e-18
CC27 B0#11 MX20/M0#s 4.10402e-18
CC28 MX19/M0#g MX20/M0#s 1.15e-17
CC29 B0#11 VDD 7.82469e-18
CC30 B0 VDD#1 3.51047e-18
CC31 MM0#g VDD#8 4.75685e-18
CC32 B0 VDD#8 1.06975e-17
CC33 B0 VDD 3.17884e-18
CC34 MM0#g MX22/M0#s 3.38438e-18
CC35 MM0#g VDD 1.5558e-17
CC36 B0 MX22/M0#s 3.15102e-18
CC37 MM0#g VDD#1 7.17149e-18
CC38 B0#11 C0 6.61114e-18
CC39 B0 C0#11 7.24665e-18
CC40 B0 C0#12 3.47297e-17
CC41 B0 C0 7.65559e-17
RgC15 MM0#g B0#8 268.752411 $L=0.895 $W=0.15
RgC16 B0#8 B0#9 34.134449 $L=0.1645 $W=0.27
RgC17 B0#9 MX19/M0#g 337.444611 $L=1.05 $W=0.15
RfC18 B0#10 B0#11 3.388236 $L=0.045 $W=0.17
ReC19 B0#12 B0 0.033654 $L=0.07 $W=0.26
RjC20 B0#10 B0#12 152.000000 $A=0.0289
RiC21 B0#8 B0#11 15.000000 $A=0.0289
*
*|NET 11 1.72613e-16
*|I (MX20/M0#d MX20/M0 d X 0 0.8295 0.9300)
*|I (MX17/M0#s MX17/M0 s X 0 0.5505 0.9300)
*|S (11 0.6900 0.9700)
CI1 11 VSS 6.28619e-18
CI2 11 MX20/M0#s 3.32323e-17
CI3 11 VSS#6 4.54819e-18
CI4 11 VSS#12 5.52308e-18
RmwI76 MX20/M0#d 11 0.001000 $W=1000000
RmwI77 MX17/M0#s 11 0.001000 $W=1000000
*
*|NET 14 2.24942e-16
*|I (MX18/M0#s MX18/M0 s X 0 1.6895 3.0400)
*|I (MM0#d MM0 d X 0 1.4105 3.0400)
*|S (14 1.5500 2.9875)
CI5 14 VSS 3.1506e-18
RmwI78 MX18/M0#s 14 0.001000 $W=1000000
RmwI79 MM0#d 14 0.001000 $W=1000000
*
*|NET VDD 7.17681e-16
*|P (VDD X 0 1.3500 4.1450)
*|I (MX22/M0#s MX22/M0 s X 0 0.5505 3.0400)
*|I (MX21/M0#s MX21/M0 s X 0 0.8295 3.0400)
*|S (VDD#1 1.3800 4.1400)
*|S (VDD#2 1.3800 4.1400)
*|S (VDD#4 0.6900 4.1400)
*|S (VDD#5 0.0000 4.1400)
*|S (VDD#7 0.6900 3.0400)
*|S (VDD#8 1.3800 4.1400)
CE1 MX22/M0#s VSS 2.14771e-18
CE2 VDD#8 VSS 4.7427e-18
CE3 VDD#4 VSS 3.20051e-18
CE4 VDD#5 VSS 1.09806e-18
CE5 VDD#1 VSS 1.61863e-18
CE6 VDD VSS 4.55895e-19
CE7 VDD#8 14 7.61813e-18
CE8 VDD#1 14 4.31223e-18
CE9 VDD 1#8 2.54219e-18
CE10 VDD#1 MX21/M0#d 8.11587e-18
CE11 VDD#8 MX21/M0#d 6.42282e-18
CE12 VDD#5 MX22/M0#d 6.10843e-18
CE13 MX22/M0#s MX21/M0#d 6.25516e-17
CE14 VDD#8 MX22/M0#d 6.32407e-18
CE15 VDD#8 1#8 3.22209e-17
CE16 MX22/M0#s 1#9 1.7189e-17
CE17 VDD MX22/M0#d 3.13435e-17
CE18 VDD#4 1#9 3.75583e-18
CE19 VDD#5 1#9 3.07577e-18
CE20 MX22/M0#s MX22/M0#d 5.85104e-17
CE21 VDD#4 1#8 3.07727e-18
CE22 VDD#1 1#8 3.85154e-18
CE23 MX22/M0#s 1#8 1.65112e-17
CE24 VDD 1#9 2.22884e-17
CE25 VDD#8 1#9 3.22647e-17
CE26 VDD Y#15 2.68315e-18
CE27 VDD#1 Y#11 2.55208e-18
CE28 MX22/M0#s Y#15 2.35996e-18
CE29 VDD Y#13 1.33729e-18
CE30 MX22/M0#s Y#11 1.18547e-18
CE31 VDD#8 MX18/M0#d 6.914e-18
CE32 VDD Y#11 3.92416e-18
CE33 VDD Y#12 4.79591e-17
CE34 VDD#8 Y#12 1.19049e-17
CE35 VDD#1 Y#12 4.23858e-18
CE36 VDD MX18/M0#d 1.90561e-17
CE37 VDD Y 1.13043e-17
CE38 VDD#1 MX18/M0#d 9.79267e-18
CE39 VDD#8 Y#11 9.5806e-18
RfE29 VDD#1 VDD#4 35.052811 $L=0.69 $W=0.25
RfE30 VDD#4 VDD#5 35.052811 $L=0.69 $W=0.25
RfE31 VDD#4 VDD#7 76.215675 $L=1.1 $W=0.17
ReE32 VDD#8 VDD 0.009375 $L=0.03 $W=0.4
Rh_1_E33 VDD#2 VDD#1 3.000000 $A=0.1445
Rh_2_E34 MX22/M0#s VDD#7 5.000000 $A=0.0867
RjE35 VDD#1 VDD#8 30.400000 $A=0.1445
RmwE36 MX21/M0#s MX22/M0#s 0.001000 $W=1000000
*
*|NET C0 5.5121e-16
*|P (C0 X 0 1.8550 1.9350)
*|I (MX16/M0#g MX16/M0 g X 0 1.7650 0.9300)
*|I (MX18/M0#g MX18/M0 g X 0 1.7650 3.0400)
*|S (C0#8 1.7650 1.6250)
*|S (C0#9 1.7650 1.4600)
*|S (C0#10 1.8400 1.6250)
*|S (C0#11 1.7650 1.6250)
*|S (C0#12 1.8400 1.6250)
CD1 MX18/M0#g VSS 4.31927e-18
CD2 MX16/M0#g VSS 1.38308e-17
CD3 C0#12 VSS 6.56428e-18
CD4 C0#11 VSS 1.84e-17
CD5 C0 VSS 4.51417e-18
CD6 C0 14 3.99719e-18
CD7 MX18/M0#g 14 1.76948e-17
CD8 C0#11 14 3.83414e-18
CD9 MX16/M0#g Y#14 2.00323e-18
CD10 MX18/M0#g Y#11 1.87207e-18
CD11 C0 MX18/M0#d 1.42501e-18
CD12 C0#11 Y#7 2.82253e-18
CD13 C0#11 Y#14 3.98931e-18
CD14 MX16/M0#g Y#6 1.22286e-17
CD15 C0#12 Y#14 1.16698e-17
CD16 MX18/M0#g Y#7 3.52478e-18
CD17 C0#11 Y 7.50222e-18
CD18 C0 Y#11 9.80606e-18
CD19 C0 Y#12 2.78438e-17
CD20 C0 Y#7 1.5255e-17
CD21 C0#12 Y#6 4.60261e-18
CD22 C0#11 Y#6 1.43041e-17
CD23 C0 Y 4.6272e-17
CD24 MX18/M0#g MX18/M0#d 1.74785e-17
CD25 C0#12 Y#13 6.78253e-18
CD26 C0#12 Y 5.39201e-17
CD27 MX16/M0#g VSS#3 1.9246e-18
CD28 MX16/M0#g VSS#12 3.45211e-18
CD29 C0#12 MX16/M0#s 1.05852e-17
CD30 MX16/M0#g VSS#2 3.12464e-18
CD31 C0#11 MX16/M0#s 1.92382e-17
CD32 MX16/M0#g MX16/M0#s 1.51046e-17
CD33 MX16/M0#g MX20/M0#s 2.90027e-18
CD34 C0 VDD#1 1.78186e-18
CD35 MX18/M0#g VDD 1.4691e-17
CD36 MX18/M0#g VDD#1 7.17149e-18
CD37 C0 VDD 5.67877e-18
CD38 MX18/M0#g VDD#8 6.29139e-18
RgD22 MX18/M0#g C0#8 435.845734 $L=1.415 $W=0.15
RgD23 C0#8 C0#9 34.134449 $L=0.1645 $W=0.27
RgD24 C0#9 MX16/M0#g 170.351288 $L=0.53 $W=0.15
RfD25 C0#10 C0#11 5.647059 $L=0.075 $W=0.17
ReD26 C0 C0#12 0.149038 $L=0.31 $W=0.26
RjD27 C0#10 C0#12 152.000000 $A=0.0289
RiD28 C0#8 C0#11 15.000000 $A=0.0289
*
*|NET A1 4.56764e-16
*|P (A1 X 0 0.4750 2.2150)
*|I (MX17/M0#g MX17/M0 g X 0 0.4750 0.9300)
*|I (MX22/M0#g MX22/M0 g X 0 0.4750 3.0400)
*|S (A1#8 0.4750 2.1450)
*|S (A1#9 0.4750 1.9800)
*|S (A1#10 0.4750 2.1450)
*|S (A1#11 0.4600 2.1450)
*|S (A1#12 0.4600 2.1450)
CB1 MX22/M0#g VSS 6.6589e-19
CB2 MX17/M0#g VSS 1.23486e-17
CB3 A1#11 VSS 9.05343e-18
CB4 A1 VSS 3.29656e-17
CB5 MX17/M0#g 11 1.2081e-17
CB6 A1#11 11 4.43702e-18
CB7 MX22/M0#g 1#9 2.25753e-18
CB8 MX22/M0#g MX21/M0#d 4.00239e-18
CB9 A1 1#9 2.05267e-17
CB10 A1 MX21/M0#d 5.10643e-18
CB11 A1#11 MX22/M0#d 1.39525e-17
CB12 MX22/M0#g MX22/M0#d 2.0416e-17
CB13 A1 MX22/M0#d 2.76233e-17
CB14 A1#11 Y#1 3.11138e-18
CB15 A1#11 Y#15 3.17156e-18
CB16 A1 Y#1 3.79265e-18
CB17 A1 Y#15 2.15917e-17
CB18 MX17/M0#g Y#1 1.41893e-17
CB19 MX17/M0#g Y#15 3.32807e-18
CB20 MX17/M0#g VSS#6 2.40009e-18
CB21 MX17/M0#g VSS#7 4.36997e-18
CB22 MX17/M0#g VSS#12 3.1592e-18
CB23 MX17/M0#g MX20/M0#s 3.82332e-18
CB24 A1#11 VDD 1.00585e-17
CB25 A1#11 MX22/M0#s 1.59285e-17
CB26 A1 MX22/M0#s 1.55803e-17
CB27 MX22/M0#g VDD#8 2.37373e-18
CB28 MX22/M0#g MX22/M0#s 1.89535e-17
CB29 MX22/M0#g VDD 1.1528e-17
CB30 A1 VDD 2.49885e-17
CB31 MX22/M0#g VDD#4 5.35471e-18
CB32 A1#11 B0#11 3.85126e-18
CB33 A1 B0 1.91122e-17
RgB8 MX22/M0#g A1#8 268.752411 $L=0.895 $W=0.15
RgB9 A1#8 A1#9 34.134449 $L=0.1645 $W=0.27
RgB10 A1#9 MX17/M0#g 337.444611 $L=1.05 $W=0.15
RfB11 A1#10 A1#11 1.129412 $L=0.015 $W=0.17
ReB12 A1#12 A1 0.033654 $L=0.07 $W=0.26
RjB13 A1#11 A1#12 152.000000 $A=0.0289
RiB14 A1#8 A1#10 15.000000 $A=0.0289
*
*|NET 1 6.02596e-16
*|I (MX22/M0#d MX22/M0 d X 0 0.3995 3.0400)
*|I (MX21/M0#d MX21/M0 d X 0 0.9805 3.0400)
*|I (MM0#s MM0 s X 0 1.2595 3.0400)
*|S (1 0.2600 3.3250)
*|S (1#3 0.2600 3.0400)
*|S (1#4 1.1200 3.3250)
*|S (1#6 1.1200 3.0400)
*|S (1#7 1.1200 3.3250)
*|S (1#8 1.0050 3.3250)
*|S (1#9 0.3745 3.3250)
*|S (1#10 0.2600 3.3250)
CH1 MX21/M0#d VSS 7.72131e-18
CH2 MX22/M0#d VSS 3.26237e-18
CH3 1#9 VSS 3.88362e-18
CH4 1#8 VSS 8.01191e-18
CH5 1#8 14 7.33097e-18
CH6 MX21/M0#d 14 5.08695e-17
RfH66 1 1#3 21.458824 $L=0.285 $W=0.17
RfH67 1#4 1#6 21.458824 $L=0.285 $W=0.17
ReH68 1#7 1#8 0.051723 $L=0.1145 $W=0.29
ReH69 1#8 1#9 0.342607 $L=0.63 $W=0.23
ReH70 1#9 1#10 0.051723 $L=0.1145 $W=0.29
Rh_2_H71 MX22/M0#d 1#3 5.000000 $A=0.0867
Rh_2_H72 MX21/M0#d 1#6 5.000000 $A=0.0867
RjH73 1#4 1#7 152.000000 $A=0.0289
RjH74 1 1#10 152.000000 $A=0.0289
RmwH75 MM0#s MX21/M0#d 0.001000 $W=1000000
*
*|NET VSS 9.43622e-16
*|P (VSS X 0 1.3500 0.0050)
*|I (MX20/M0#s MX20/M0 s X 0 0.9805 0.9300)
*|I (MX19/M0#s MX19/M0 s X 0 1.2595 0.9300)
*|I (MX16/M0#s MX16/M0 s X 0 1.8405 0.9300)
*|S (VSS#1 2.7595 0.0000)
*|S (VSS#2 1.9800 0.0000)
*|S (VSS#3 1.3800 0.0000)
*|S (VSS#4 1.3800 0.0000)
*|S (VSS#6 1.1200 0.0000)
*|S (VSS#7 0.0000 0.0000)
*|S (VSS#9 1.9800 0.9300)
*|S (VSS#11 1.1200 0.9300)
*|S (VSS#12 1.3800 0.0000)
RfF37 VSS#1 VSS#2 39.635212 $L=0.7795 $W=0.25
RfF38 VSS#2 VSS#3 30.444811 $L=0.6 $W=0.25
RfF39 VSS#3 VSS#6 13.036811 $L=0.26 $W=0.25
RfF40 VSS#6 VSS#7 57.068810 $L=1.12 $W=0.25
RfF41 VSS#2 VSS#9 63.415680 $L=0.93 $W=0.17
RfF42 VSS#6 VSS#11 63.415680 $L=0.93 $W=0.17
ReF43 VSS#12 VSS 0.009375 $L=0.03 $W=0.4
RhF44 MX16/M0#s VSS#9 7.500000 $A=0.0578
RhF45 MX20/M0#s VSS#11 7.500000 $A=0.0578
Rh_3_F46 VSS#4 VSS#3 3.000000 $A=0.1445
RjF47 VSS#3 VSS#12 30.400000 $A=0.1445
RmwF48 MX19/M0#s MX20/M0#s 0.001000 $W=1000000
*
*|NET Y 1.22341e-15
*|P (Y X 0 2.3250 1.7550)
*|I (MX19/M0#d MX19/M0 d X 0 1.4105 0.9300)
*|I (MX17/M0#d MX17/M0 d X 0 0.3995 0.9300)
*|I (MX16/M0#d MX16/M0 d X 0 1.6895 0.9300)
*|I (MX18/M0#d MX18/M0 d X 0 1.8405 3.0400)
*|S (Y#1 0.2600 0.9350)
*|S (Y#3 0.2600 0.9300)
*|S (Y#5 1.5500 0.9300)
*|S (Y#6 1.5500 0.7550)
*|S (Y#7 1.9800 2.4200)
*|S (Y#8 1.9850 2.9350)
*|S (Y#10 1.9800 3.0400)
*|S (Y#11 1.9850 2.9350)
*|S (Y#12 2.3000 2.9350)
*|S (Y#13 2.3000 0.7550)
*|S (Y#14 1.5500 0.7550)
*|S (Y#15 0.4045 0.7550)
*|S (Y#16 0.2600 0.9350)
CG1 MX18/M0#d VSS 2.42182e-19
CG2 Y#15 VSS 4.52534e-17
CG3 Y#14 VSS 1.04113e-17
CG4 Y#13 VSS 4.32657e-17
CG5 Y#11 VSS 4.1109e-18
CG6 Y#7 VSS 1.44644e-18
CG7 Y#1 VSS 1.0624e-17
CG8 Y VSS 4.17996e-17
CG9 MX18/M0#d 14 4.65397e-17
CG10 Y#1 11 3.39515e-17
CG11 Y#7 14 9.84453e-18
CG12 Y#6 14 1.26456e-18
CG13 Y#14 14 1.70885e-18
CG14 Y#11 14 6.15408e-18
CG15 Y#15 11 3.39852e-17
CG16 Y#12 14 1.57316e-18
CG17 Y#1 MX22/M0#d 2.47269e-18
CG18 MX18/M0#d MX21/M0#d 2.35418e-18
CG19 Y#11 MX21/M0#d 2.2753e-18
CG20 Y#1 1#9 1.83678e-18
CG21 Y#15 MX22/M0#d 3.39595e-18
CG22 MX18/M0#d 1#8 4.04684e-18
CG23 Y#1 MX20/M0#s 3.21025e-18
CG24 Y MX16/M0#s 2.23482e-18
CG25 Y#11 MX16/M0#s 2.07506e-18
CG26 Y#14 VSS#2 2.05574e-18
CG27 Y#15 MX20/M0#s 1.72008e-18
CG28 Y#13 VSS#1 1.67155e-18
CG29 Y#13 MX16/M0#s 3.54294e-17
CG30 Y#6 MX20/M0#s 4.03961e-17
CG31 Y#1 VSS#12 6.22103e-18
CG32 Y#14 MX16/M0#s 1.07317e-17
CG33 Y#15 VSS#7 7.2322e-18
CG34 Y#13 VSS#12 3.26825e-17
CG35 Y#14 MX20/M0#s 2.84111e-17
CG36 Y#15 VSS#12 4.93295e-17
CG37 Y#6 MX16/M0#s 3.91219e-17
CG38 Y#15 VSS#6 5.51902e-18
CG39 Y#6 VSS#3 6.25597e-18
CG40 Y#6 VSS#12 6.22103e-18
CG41 Y#13 VSS#2 6.46726e-18
CG42 Y#14 VSS#3 6.52348e-18
CG43 Y#1 VSS#7 9.46025e-18
CG44 Y#14 VSS#12 5.18761e-17
RfG49 Y#1 Y#3 0.125490 $L=0.005 $W=0.17
RfG50 Y#5 Y#6 13.176471 $L=0.175 $W=0.17
RfG51 Y#7 Y#8 38.437721 $L=0.515 $W=0.17
RfG52 Y#8 Y#10 7.680000 $L=0.105 $W=0.175
ReG53 Y#11 Y#12 0.114797 $L=0.315 $W=0.29
ReG54 Y#12 Y 0.532652 $L=1.18 $W=0.26
ReG55 Y Y#13 0.460572 $L=1 $W=0.26
ReG56 Y#13 Y#14 0.372048 $L=0.75 $W=0.23
ReG57 Y#14 Y#15 0.622336 $L=1.145 $W=0.23
ReG58 Y#15 Y#16 0.054418 $L=0.1445 $W=0.59
RhG59 MX17/M0#d Y#3 7.500000 $A=0.0578
RhG60 MX19/M0#d Y#5 7.500000 $A=0.0578
Rh_2_G61 MX18/M0#d Y#10 5.000000 $A=0.0867
RjG62 Y#8 Y#11 152.000000 $A=0.0289
RjG63 Y#6 Y#14 152.000000 $A=0.0289
RjG64 Y#1 Y#16 76.000000 $A=0.0578
RmwG65 MX16/M0#d MX19/M0#d 0.001000 $W=1000000
*
*Instance Section
*
MX20/M0	MX20/M0#d	MX20/M0#g	MX20/M0#s	VSS	nfet_01v8
+ L=1.5e-07	W=8.4e-07
MX19/M0	MX19/M0#d	MX19/M0#g	MX19/M0#s	VSS	nfet_01v8
+ L=1.5e-07	W=8.4e-07
MX17/M0	MX17/M0#d	MX17/M0#g	MX17/M0#s	VSS	nfet_01v8
+ L=1.5e-07	W=8.4e-07
MX16/M0	MX16/M0#d	MX16/M0#g	MX16/M0#s	VSS	nfet_01v8
+ L=1.5e-07	W=8.4e-07
MX22/M0	MX22/M0#d	MX22/M0#g	MX22/M0#s	VDD	pfet_01v8_hvt
+ L=1.5e-07	W=1.24e-06
MX21/M0	MX21/M0#d	MX21/M0#g	MX21/M0#s	VDD	pfet_01v8_hvt
+ L=1.5e-07	W=1.24e-06
MX18/M0	MX18/M0#d	MX18/M0#g	MX18/M0#s	VDD	pfet_01v8_hvt
+ L=1.5e-07	W=1.24e-06
MM0	MM0#d	MM0#g	MM0#s	VDD	pfet_01v8_hvt	L=1.5e-07
+ W=1.24e-06
.ENDS
