*
*|DSPF 1.5
*
*|DATE "Fri Feb 28 14:00:52 2025"
*|VENDOR "Cadence Design Systems"
*|PROGRAM "Cadence Quantus Extraction"
*|VERSION "22.1.0-p089 Linux 64 bit - (Thu Jan 19 11:47:08 PST 2023)"
*|DESIGN "AOI221X2_LP"
*|DIVIDER /
*|DELIMITER #
*|DeviceFingerDelim "@"
*|BUSBIT []
*|GLOBAL_TEMPERATURE 25
*|OPERATING_TEMPERATURE 25
** QRC_TECH_DIR /vols/wfo_devel/projects/reference_SKY130/tech/sky130_release_0.0.4/quantus/extraction/typical 
** HIERARCHICAL_SPLIT_PINS_DELIMITER '%'
** caps2d version: 10
*
.SUBCKT  AOI221X2_LP A0 A1 B0 B1 C0 VDD VSS Y
*
*Net Section
*
*|GROUND_NET VSS
*
*|NET A1 5.72807e-16
*|P (A1 X 0 1.3950 2.0450)
*|I (MX35/M0#g MX35/M0 g X 0 1.3350 0.8000)
*|I (MX35/M1#g MX35/M1 g X 0 1.7650 0.8000)
*|I (MX30/M0#g MX30/M0 g X 0 1.3350 3.2400)
*|I (MX30/M1#g MX30/M1 g X 0 1.7650 3.2400)
*|S (A1#15 1.7650 1.6250)
*|S (A1#16 1.5500 1.6250)
*|S (A1#17 1.3250 1.6250)
*|S (A1#18 1.3250 1.4600)
*|S (A1#19 1.7750 1.4600)
*|S (A1#20 1.3250 1.7895)
*|S (A1#21 1.5500 1.6250)
*|S (A1#22 1.3800 1.6250)
*|S (A1#23 1.3800 1.6250)
CB1 MX30/M1#g VSS 3.51787e-18
CB2 MX30/M0#g VSS 9.58065e-19
CB3 MX35/M1#g VSS 1.41715e-17
CB4 MX35/M0#g VSS 1.97049e-17
CB5 A1#23 VSS 1.39438e-17
CB6 A1#21 VSS 4.37096e-17
CB7 A1 VSS 5.08413e-18
CB8 MX35/M1#g 17#10 1.97868e-18
CB9 MX35/M0#g 17#11 1.64854e-18
CB10 MX35/M1#g 17#6 1.06442e-18
CB11 A1#23 17#11 1.30526e-17
CB12 A1#21 17#6 6.79934e-18
CB13 A1#21 17#11 6.41594e-18
CB14 MX35/M0#g 17#6 5.26975e-18
CB15 MX35/M1#g 17#9 6.06866e-18
CB16 MX30/M0#g MX31/M0#s 1.18839e-18
CB17 MX30/M0#g MX39/M1#d 5.60551e-18
CB18 MX30/M1#g 1#18 3.60883e-18
CB19 MX30/M0#g 1#6 3.11808e-18
CB20 A1#21 1#18 6.91809e-18
CB21 A1#21 1#6 5.00698e-18
CB22 A1#21 1#19 5.38938e-18
CB23 A1 1#19 4.0447e-17
CB24 MX30/M1#g MX31/M0#s 5.60551e-18
CB25 MX30/M1#g 1#9 3.11808e-18
CB26 MX30/M0#g 1#19 3.60883e-18
CB27 A1#23 Y#1 2.81501e-18
CB28 MX35/M1#g Y#24 2.70468e-18
CB29 MX35/M1#g Y#1 2.11281e-18
CB30 MX35/M0#g Y#1 2.03654e-18
CB31 A1#21 Y#24 1.70622e-17
CB32 MX35/M0#g MX35/M0#d 4.18506e-18
CB33 A1#21 Y#1 1.44023e-17
CB34 MX35/M1#g MX35/M0#d 4.37881e-18
CB35 A1#23 Y#24 2.26383e-17
CB36 A1#21 VSS#14 2.30822e-18
CB37 MX35/M1#g VSS#14 2.23043e-18
CB38 MX35/M0#g VSS#14 2.23043e-18
CB39 A1#23 VSS#8 2.01546e-18
CB40 MX35/M1#g VSS#3 1.99223e-18
CB41 MX35/M0#g VSS#8 5.74683e-18
CB42 MX35/M1#g VSS#8 3.73544e-18
CB43 MX30/M0#g MX39/M0#d 1.78914e-18
CB44 MX30/M0#g VDD#11 4.05069e-18
CB45 MX30/M1#g VDD 1.57984e-17
CB46 A1 MX30/M0#d 3.39124e-18
CB47 MX30/M1#g VDD#4 4.34129e-18
CB48 MX30/M0#g VDD 1.57984e-17
CB49 MX30/M0#g MX30/M0#d 8.7194e-18
CB50 MX30/M1#g VDD#11 4.05069e-18
CB51 MX30/M1#g MX30/M0#d 8.7194e-18
CB52 MX30/M0#g VDD#4 4.34129e-18
CB53 A1 VDD 2.83293e-17
CB54 A1#21 B1 1.33121e-17
CB55 A1 B1 3.00378e-17
CB56 A1 B1#22 4.34036e-18
CB57 A1#23 B1 1.88752e-17
RgB14 MX30/M1#g A1#15 512.778748 $L=1.615 $W=0.15
RgB15 A1#15 A1#16 20.521515 $L=0.218 $W=0.33
RgB16 A1#16 A1#17 20.521515 $L=0.218 $W=0.33
RgB17 A1#17 A1#18 46.128941 $L=0.1645 $W=0.17
RgB18 A1#18 MX35/M0#g 212.150879 $L=0.66 $W=0.15
RgB19 A1#15 A1#19 46.128941 $L=0.1645 $W=0.17
RgB20 A1#19 MX35/M1#g 212.150879 $L=0.66 $W=0.15
RgB21 A1#17 A1#20 46.131256 $L=0.1645 $W=0.17
RgB22 A1#20 MX30/M0#g 466.004211 $L=1.45 $W=0.15
RfB23 A1#21 A1#22 12.800000 $L=0.17 $W=0.17
ReB24 A1 A1#23 0.201923 $L=0.42 $W=0.26
RjB25 A1#22 A1#23 152.000000 $A=0.0289
RiB26 A1#16 A1#21 7.500000 $A=0.0578
*
*|NET 1 1.24973e-15
*|I (MX39/M0#s MX39/M0 s X 0 0.3995 3.2400)
*|I (MX39/M1#d MX39/M1 d X 0 0.9805 3.2400)
*|I (MX32/M0#s MX32/M0 s X 0 2.9795 3.2400)
*|I (MX32/M1#d MX32/M1 d X 0 3.5605 3.2400)
*|I (MX31/M0#s MX31/M0 s X 0 2.1195 3.2400)
*|I (MX31/M1#d MX31/M1 d X 0 2.7005 3.2400)
*|I (MX30/M0#s MX30/M0 s X 0 1.2595 3.2400)
*|I (MX30/M1#d MX30/M1 d X 0 1.8405 3.2400)
*|S (1 0.2600 3.2400)
*|S (1#2 0.2600 3.2400)
*|S (1#3 0.2600 2.9650)
*|S (1#5 1.1200 3.2400)
*|S (1#6 1.1200 2.9650)
*|S (1#8 1.9800 3.2400)
*|S (1#9 1.9800 2.9650)
*|S (1#11 2.8400 3.2400)
*|S (1#12 2.8400 2.9650)
*|S (1#14 3.7000 3.2400)
*|S (1#15 3.7000 2.9650)
*|S (1#16 3.7000 2.9650)
*|S (1#17 2.8400 2.9650)
*|S (1#18 1.9800 2.9650)
*|S (1#19 1.1200 2.9650)
*|S (1#20 0.2600 2.9650)
CI1 MX32/M1#d VSS 1.21544e-18
CI2 MX39/M1#d VSS 2.64258e-18
CI3 1#20 VSS 9.9121e-18
CI4 1#19 VSS 5.63176e-18
CI5 1#18 VSS 1.25601e-17
CI6 1#17 VSS 1.1145e-17
CI7 1#16 VSS 1.06322e-17
CI8 1#3 VSS 1.72944e-18
CI9 1#6 VSS 1.23201e-18
CI10 1#9 VSS 1.44124e-18
CI11 1#12 VSS 5.2374e-18
CI12 1#15 VSS 3.74387e-18
CI13 1 VSS 1.38252e-18
CI14 1#6 17#11 1.89089e-18
CI15 1#20 17#3 1.83354e-18
CI16 1#18 17#9 3.57429e-18
CI17 MX32/M1#d MX33/M0#s 3.59585e-18
CI18 1#17 MX32/M0#d 7.50217e-18
CI19 MX32/M0#s MX32/M0#d 2.08569e-17
CI20 1#9 MX31/M0#d 1.01522e-17
CI21 MX32/M1#d 2#15 2.32798e-17
CI22 1#12 MX32/M0#d 1.01522e-17
CI23 1#18 MX31/M0#d 7.01156e-18
CI24 1#16 MX32/M0#d 7.65051e-18
CI25 1#12 MX31/M0#d 1.01522e-17
CI26 1#15 MX32/M0#d 1.01522e-17
CI27 MX32/M0#s MX31/M0#d 2.08569e-17
CI28 1#18 2#16 1.39675e-17
CI29 MX32/M0#s 2#16 1.00337e-17
CI30 1#17 2#16 4.14708e-17
CI31 1#17 MX31/M0#d 7.34089e-18
CI32 MX31/M0#s MX31/M0#d 2.1764e-17
CI33 1#17 2#15 4.14708e-17
CI34 MX32/M1#d MX32/M0#d 2.08569e-17
CI35 MX32/M0#s 2#15 9.99046e-18
CI36 1#16 2#15 6.28857e-17
CI37 MX31/M0#s 2#16 5.98048e-18
CI38 1#17 MX34/M0#d 3.2803e-18
CI39 1#16 VSS#3 2.45196e-18
CI40 1#17 VSS#3 2.09359e-18
CI41 1#19 VSS#8 1.98026e-18
CI42 1#18 VSS#3 1.78238e-18
CI43 1#18 VSS#8 1.65036e-18
RfI122 1#2 1#3 20.705883 $L=0.275 $W=0.17
RfI123 1#5 1#6 20.705883 $L=0.275 $W=0.17
RfI124 1#8 1#9 20.705883 $L=0.275 $W=0.17
RfI125 1#11 1#12 20.705883 $L=0.275 $W=0.17
RfI126 1#14 1#15 20.705883 $L=0.275 $W=0.17
ReI127 1#16 1#17 0.632353 $L=0.86 $W=0.17
ReI128 1#17 1#18 0.632353 $L=0.86 $W=0.17
ReI129 1#18 1#19 0.632353 $L=0.86 $W=0.17
ReI130 1#19 1#20 0.632353 $L=0.86 $W=0.17
Rh_2_I131 1 1#2 15.000000 $A=0.0289
Rh_2_I132 MX39/M1#d 1#5 15.000000 $A=0.0289
Rh_2_I133 MX31/M0#s 1#8 15.000000 $A=0.0289
Rh_2_I134 MX32/M0#s 1#11 15.000000 $A=0.0289
Rh_2_I135 MX32/M1#d 1#14 15.000000 $A=0.0289
RjI136 1#15 1#16 152.000000 $A=0.0289
RjI137 1#12 1#17 152.000000 $A=0.0289
RjI138 1#9 1#18 152.000000 $A=0.0289
RjI139 1#6 1#19 152.000000 $A=0.0289
RjI140 1#3 1#20 152.000000 $A=0.0289
RmwI141 MX39/M0#s 1 0.001000 $W=1000000
RmwI142 MX31/M1#d MX32/M0#s 0.001000 $W=1000000
RmwI143 MX30/M0#s MX39/M1#d 0.001000 $W=1000000
RmwI144 MX30/M1#d MX31/M0#s 0.001000 $W=1000000
*
*|NET B1 5.01505e-16
*|P (B1 X 0 2.3150 2.0650)
*|I (MX34/M0#g MX34/M0 g X 0 2.7150 0.8000)
*|I (MX34/M1#g MX34/M1 g X 0 3.1450 0.8000)
*|I (MX31/M0#g MX31/M0 g X 0 2.1950 3.2400)
*|I (MX31/M1#g MX31/M1 g X 0 2.6250 3.2400)
*|S (B1#15 2.7450 1.6250)
*|S (B1#16 2.6250 2.0950)
*|S (B1#17 2.3295 2.0800)
*|S (B1#18 2.1950 2.0950)
*|S (B1#19 2.7150 1.5495)
*|S (B1#20 2.1950 2.2595)
*|S (B1#21 2.3000 2.0950)
*|S (B1#22 2.1950 2.0950)
*|S (B1#23 2.3000 2.0950)
CD1 MX31/M1#g VSS 3.11006e-18
CD2 MX31/M0#g VSS 1.3494e-18
CD3 MX34/M1#g VSS 1.84708e-17
CD4 MX34/M0#g VSS 2.05487e-17
CD5 B1#22 VSS 1.73524e-17
CD6 B1 VSS 2.21089e-17
CD7 MX34/M1#g 19#11 2.0027e-18
CD8 MX34/M0#g 19#12 1.99303e-18
CD9 B1 19#3 1.74697e-18
CD10 B1#22 19#3 1.52773e-18
CD11 MX34/M0#g 19#6 1.09058e-18
CD12 MX34/M0#g 19#3 6.08322e-18
CD13 MX34/M1#g 19#6 5.2823e-18
CD14 MX31/M1#g 2#16 1.53442e-18
CD15 B1#22 MX31/M0#d 3.80051e-18
CD16 MX31/M0#g MX31/M0#d 7.78731e-18
CD17 MX31/M1#g MX31/M0#d 7.78731e-18
CD18 B1 MX31/M0#d 4.15568e-18
CD19 MX31/M0#g 2#16 3.01779e-18
CD20 MX31/M1#g 1#17 1.95265e-18
CD21 B1#22 1#17 1.36302e-18
CD22 MX34/M0#g 1#17 1.11269e-18
CD23 MX31/M1#g MX31/M0#s 1.10624e-18
CD24 MX31/M0#g MX32/M0#s 1.10624e-18
CD25 MX31/M1#g MX32/M0#s 5.61499e-18
CD26 B1#22 1#9 4.40536e-18
CD27 MX31/M1#g 1#12 3.11808e-18
CD28 B1#22 1#18 5.2688e-18
CD29 B1 1#18 2.9574e-17
CD30 B1 1#17 8.56168e-18
CD31 MX31/M0#g 1#18 3.55512e-18
CD32 MX31/M0#g 1#9 3.11808e-18
CD33 MX31/M0#g MX31/M0#s 5.60551e-18
CD34 MX31/M1#g Y#24 2.06735e-18
CD35 MX34/M0#g Y#21 2.05171e-18
CD36 MX34/M1#g MX36/M0#d 8.02818e-19
CD37 B1 Y#24 3.78046e-17
CD38 MX34/M1#g Y#21 2.952e-18
CD39 B1#22 Y#24 6.24589e-18
CD40 MX34/M1#g VSS#14 2.23043e-18
CD41 MX34/M0#g VSS#14 2.23043e-18
CD42 B1#22 VSS#14 1.12619e-18
CD43 MX34/M0#g VSS#3 4.29097e-18
CD44 MX34/M1#g VSS#3 4.29097e-18
CD45 MX34/M1#g MX34/M0#d 6.22807e-18
CD46 MX34/M0#g MX34/M0#d 6.52741e-18
CD47 MX31/M0#g VDD#1 1.82179e-18
CD48 MX31/M0#g MX30/M0#d 1.78914e-18
CD49 MX31/M0#g VDD#11 3.55048e-18
CD50 B1#22 VDD 9.07968e-18
CD51 MX31/M1#g VDD#1 5.81423e-18
CD52 MX31/M0#g VDD#4 3.97306e-18
CD53 MX31/M1#g VDD#11 3.18987e-18
CD54 MX31/M1#g VDD 1.87832e-17
CD55 MX31/M0#g VDD 1.58564e-17
CD56 B1 VDD 2.1762e-17
RgD40 MX34/M1#g B1#15 371.513550 $L=1.225 $W=0.15
RgD41 B1#15 B1#16 165.621902 $L=0.59 $W=0.15
RgD42 B1#16 B1#17 75.115234 $L=0.295 $W=0.15
RgD43 B1#17 B1#18 21.659868 $L=0.1345 $W=0.3
RgD44 B1#15 B1#19 16.437016 $L=0.075 $W=0.15
RgD45 B1#19 MX34/M0#g 248.571838 $L=0.7495 $W=0.15
RgD46 B1#16 MX31/M1#g 366.081696 $L=1.145 $W=0.15
RgD47 B1#18 B1#20 29.411320 $L=0.1645 $W=0.27
RgD48 B1#20 MX31/M0#g 314.951294 $L=0.98 $W=0.15
RfD49 B1#21 B1#22 7.905882 $L=0.105 $W=0.17
ReD50 B1 B1#23 0.014423 $L=0.03 $W=0.26
RjD51 B1#21 B1#23 152.000000 $A=0.0289
RiD52 B1#18 B1#22 15.000000 $A=0.0289
*
*|NET Y 1.71505e-15
*|P (Y X 0 5.5950 1.8350)
*|I (MX37/M0#s MX37/M0 s X 0 4.8795 0.8000)
*|I (MX37/M1#d MX37/M1 d X 0 5.4605 0.8000)
*|I (MX36/M0#d MX36/M0 d X 0 3.6505 0.8000)
*|I (MX36/M1#s MX36/M1 s X 0 3.9295 0.8000)
*|I (MX35/M0#d MX35/M0 d X 0 1.4105 0.8000)
*|I (MX35/M1#s MX35/M1 s X 0 1.6895 0.8000)
*|I (MX33/M0#d MX33/M0 d X 0 5.0305 3.2400)
*|I (MX33/M1#s MX33/M1 s X 0 5.3095 3.2400)
*|S (Y#1 1.5500 1.0450)
*|S (Y#3 1.5500 0.8000)
*|S (Y#4 3.7900 1.0450)
*|S (Y#6 3.7900 0.8000)
*|S (Y#8 4.7400 0.8000)
*|S (Y#9 4.7400 0.7800)
*|S (Y#11 5.1700 3.2400)
*|S (Y#12 5.1700 2.9750)
*|S (Y#14 5.6000 0.8000)
*|S (Y#15 5.6000 0.7800)
*|S (Y#16 5.1700 2.9750)
*|S (Y#17 5.5525 2.5600)
*|S (Y#18 5.6000 0.7800)
*|S (Y#19 4.7400 0.7800)
*|S (Y#20 4.7500 1.1200)
*|S (Y#21 3.9045 1.1200)
*|S (Y#22 3.7900 1.0450)
*|S (Y#23 3.6750 1.1200)
*|S (Y#24 1.6645 1.1200)
*|S (Y#25 1.5500 1.0450)
CH1 MX33/M0#d VSS 2.54368e-19
CH2 MX35/M0#d VSS 1.01195e-18
CH3 MX36/M0#d VSS 2.09136e-19
CH4 Y#24 VSS 5.54022e-17
CH5 Y#21 VSS 5.31893e-17
CH6 Y#20 VSS 2.59577e-17
CH7 Y#19 VSS 2.11181e-18
CH8 Y#18 VSS 4.65594e-17
CH9 Y#16 VSS 7.43611e-19
CH10 Y#17 VSS 8.27128e-18
CH11 Y#1 VSS 1.96546e-17
CH12 Y#4 VSS 1.43114e-17
CH13 Y#9 VSS 1.56491e-18
CH14 Y#12 VSS 7.28883e-19
CH15 Y#15 VSS 5.49378e-19
CH16 Y VSS 3.92615e-17
CH17 Y#9 19#10 2.37113e-18
CH18 Y#21 19#12 1.89327e-17
CH19 Y#20 19#10 8.48124e-18
CH20 Y#21 19#11 7.29475e-17
CH21 Y#21 19#10 4.56803e-17
CH22 Y#24 19#3 1.17466e-17
CH23 MX36/M0#d 19#10 7.20204e-18
CH24 Y#4 19#6 6.76223e-18
CH25 Y#9 19#9 1.25916e-17
CH26 MX36/M0#d 19#11 7.24647e-18
CH27 Y#21 19#6 1.29505e-17
CH28 Y#19 19#9 5.02089e-18
CH29 Y#24 19#12 2.76881e-17
CH30 MX36/M0#d 19#9 1.40331e-17
CH31 Y#20 19#9 4.47701e-18
CH32 MX36/M0#d 19#6 1.4706e-17
CH33 Y#21 19#9 1.02986e-17
CH34 Y#19 19#10 2.0513e-17
CH35 Y#4 19#9 6.76223e-18
CH36 Y#1 17#6 4.49375e-18
CH37 Y#24 17#6 3.77314e-18
CH38 MX35/M0#d 17#10 7.20204e-18
CH39 MX35/M0#d 17#11 7.32852e-18
CH40 Y#1 17#9 6.76223e-18
CH41 MX35/M0#d 17#9 1.4706e-17
CH42 Y#24 17#11 2.3976e-17
CH43 MX35/M0#d 17#6 1.4706e-17
CH44 Y#24 17#9 1.37586e-17
CH45 Y#24 17#10 5.84037e-17
CH46 Y#24 MX31/M0#d 1.93754e-18
CH47 MX33/M0#d MX33/M1#d 2.15867e-17
CH48 Y#16 MX33/M1#d 6.04978e-18
CH49 MX33/M0#d MX33/M0#s 2.15872e-17
CH50 Y#12 MX33/M1#d 6.49297e-18
CH51 MX33/M0#d 2#14 9.26965e-18
CH52 Y#17 MX33/M1#d 1.20912e-17
CH53 Y#16 2#13 2.52357e-17
CH54 Y#17 2#13 1.7115e-17
CH55 Y#12 MX33/M0#s 6.50499e-18
CH56 MX33/M0#d 2#13 8.99909e-18
CH57 Y#16 MX33/M0#s 6.08865e-18
CH58 Y#16 2#14 2.27619e-17
CH59 Y#21 1#15 5.687e-18
CH60 Y#16 1#15 4.98524e-18
CH61 Y#4 1#16 4.62218e-18
CH62 Y#24 1#9 4.35367e-18
CH63 Y#16 1#16 6.54334e-18
CH64 Y#19 VSS#2 7.74269e-18
CH65 Y#24 VSS#14 7.66865e-18
CH66 MX35/M0#d VSS#8 7.43519e-18
CH67 MX36/M0#d VSS#3 7.43519e-18
CH68 Y#20 VSS#14 6.63505e-18
CH69 Y#9 VSS#2 6.14626e-18
CH70 Y#18 VSS#2 5.08838e-18
CH71 Y#9 VSS#14 5.04356e-18
CH72 Y#15 VSS#14 5.02729e-18
CH73 MX35/M0#d VSS#14 4.86974e-18
CH74 MX36/M0#d VSS#14 4.86974e-18
CH75 Y#24 VSS#3 3.32635e-18
CH76 Y#15 VSS#1 3.25719e-18
CH77 Y#17 MX37/M0#d 3.14911e-18
CH78 Y#15 VSS#2 2.86346e-18
CH79 Y#18 VSS#1 2.84499e-18
CH80 Y#21 VSS#3 2.60386e-18
CH81 Y#18 MX37/M0#d 2.07689e-17
CH82 Y#18 VSS#14 4.05815e-17
CH83 Y#19 VSS#14 3.58252e-17
CH84 Y#15 MX37/M0#d 1.85888e-17
CH85 Y#21 MX34/M0#d 1.27948e-17
CH86 Y#9 MX37/M0#d 1.78744e-17
CH87 Y#19 MX37/M0#d 1.39109e-17
RfH94 Y#1 Y#3 18.447060 $L=0.245 $W=0.17
RfH95 Y#4 Y#6 18.447060 $L=0.245 $W=0.17
RfH96 Y#8 Y#9 1.505882 $L=0.02 $W=0.17
RfH97 Y#11 Y#12 19.952942 $L=0.265 $W=0.17
RfH98 Y#14 Y#15 1.505882 $L=0.02 $W=0.17
ReH99 Y#16 Y#17 0.280806 $L=0.7875 $W=0.26
ReH100 Y#17 Y 0.264330 $L=0.725 $W=0.325
ReH101 Y Y#18 0.405769 $L=1.055 $W=0.325
ReH102 Y#18 Y#19 0.413462 $L=0.86 $W=0.26
ReH103 Y#19 Y#20 0.168980 $L=0.34 $W=0.26
ReH104 Y#20 Y#21 0.677673 $L=0.845 $W=0.14
ReH105 Y#21 Y#22 0.076068 $L=0.1145 $W=0.29
ReH106 Y#22 Y#23 0.076068 $L=0.1145 $W=0.29
ReH107 Y#23 Y#24 1.794858 $L=2.01 $W=0.14
ReH108 Y#24 Y#25 0.076068 $L=0.1145 $W=0.29
RhH109 MX35/M0#d Y#3 15.000000 $A=0.0289
RhH110 MX36/M0#d Y#6 15.000000 $A=0.0289
RhH111 MX37/M0#s Y#8 15.000000 $A=0.0289
RhH112 MX37/M1#d Y#14 15.000000 $A=0.0289
Rh_2_H113 MX33/M0#d Y#11 15.000000 $A=0.0289
RjH114 Y#12 Y#16 152.000000 $A=0.0153
RjH115 Y#15 Y#18 152.000000 $A=0.0289
RjH116 Y#9 Y#19 152.000000 $A=0.0289
RjH117 Y#4 Y#22 152.000000 $A=0.0289
RjH118 Y#1 Y#25 152.000000 $A=0.0289
RmwH119 MX36/M1#s MX36/M0#d 0.001000 $W=1000000
RmwH120 MX35/M1#s MX35/M0#d 0.001000 $W=1000000
RmwH121 MX33/M1#s MX33/M0#d 0.001000 $W=1000000
*
*|NET 17 6.05977e-16
*|I (MX38/M0#s MX38/M0 s X 0 0.3995 0.8000)
*|I (MX38/M1#d MX38/M1 d X 0 0.9805 0.8000)
*|I (MX35/M0#s MX35/M0 s X 0 1.2595 0.8000)
*|I (MX35/M1#d MX35/M1 d X 0 1.8405 0.8000)
*|S (17 0.2600 0.8000)
*|S (17#2 0.2600 0.8000)
*|S (17#3 0.2600 0.6750)
*|S (17#5 1.1200 0.8000)
*|S (17#6 1.1200 0.6750)
*|S (17#8 1.9800 0.8000)
*|S (17#9 1.9800 0.6750)
*|S (17#10 1.9800 0.6750)
*|S (17#11 1.1200 0.6750)
*|S (17#12 0.2600 0.6750)
CK1 17#12 VSS 2.39027e-17
CK2 17#11 VSS 3.09479e-18
CK3 17#10 VSS 4.47611e-18
CK4 17#3 VSS 1.14631e-17
CK5 17#6 VSS 1.45005e-18
CK6 17#9 VSS 4.74374e-18
CK7 17#9 19#12 2.28229e-18
CK8 17#10 19#12 1.66555e-17
CK9 17#9 19#3 1.39575e-17
CK10 17#3 MX38/M0#d 2.04276e-17
CK11 17#3 VSS#14 5.02729e-18
CK12 17#12 VSS#9 3.85825e-18
CK13 17#9 VSS#14 5.04356e-18
CK14 17#11 MX38/M0#d 1.4144e-17
CK15 17#9 VSS#3 7.39728e-18
CK16 17#12 VSS#8 3.89348e-18
CK17 17#12 MX38/M0#d 1.44508e-17
CK18 17#11 VSS#8 1.09026e-17
CK19 17#12 VSS#14 3.92177e-17
CK20 17#3 VSS#9 4.72606e-18
CK21 17#10 VSS#8 3.66831e-18
CK22 17#6 VSS#14 4.80857e-18
CK23 17#10 VSS#3 5.37227e-18
CK24 17#11 VSS#14 5.17823e-17
CK25 17#6 MX38/M0#d 1.89179e-17
CK26 17#10 VSS#14 3.86397e-17
CK27 17#6 VSS#8 6.14626e-18
RfK162 17#2 17#3 9.411764 $L=0.125 $W=0.17
RfK163 17#5 17#6 9.411764 $L=0.125 $W=0.17
RfK164 17#8 17#9 9.411764 $L=0.125 $W=0.17
ReK165 17#10 17#11 0.632353 $L=0.86 $W=0.17
ReK166 17#11 17#12 0.632353 $L=0.86 $W=0.17
RhK167 17 17#2 15.000000 $A=0.0289
RhK168 MX38/M1#d 17#5 15.000000 $A=0.0289
RhK169 MX35/M1#d 17#8 15.000000 $A=0.0289
RjK170 17#9 17#10 152.000000 $A=0.0289
RjK171 17#6 17#11 152.000000 $A=0.0289
RjK172 17#3 17#12 152.000000 $A=0.0289
RmwK173 MX38/M0#s 17 0.001000 $W=1000000
RmwK174 MX35/M0#s MX38/M1#d 0.001000 $W=1000000
*
*|NET C0 5.27552e-16
*|P (C0 X 0 4.6150 2.0700)
*|I (MX37/M0#g MX37/M0 g X 0 4.9550 0.8000)
*|I (MX37/M1#g MX37/M1 g X 0 5.3850 0.8000)
*|I (MX33/M0#g MX33/M0 g X 0 4.9550 3.2400)
*|I (MX33/M1#g MX33/M1 g X 0 5.3850 3.2400)
*|S (C0#15 5.3850 2.0950)
*|S (C0#16 5.1700 2.0950)
*|S (C0#17 4.9450 2.0950)
*|S (C0#18 4.9450 1.9300)
*|S (C0#19 5.3950 1.9300)
*|S (C0#20 4.9450 2.2595)
*|S (C0#21 5.1700 2.0950)
*|S (C0#22 4.6000 2.0950)
*|S (C0#23 4.6000 2.0950)
CE1 MX33/M1#g VSS 1.98659e-19
CE2 MX33/M0#g VSS 2.00157e-18
CE3 MX37/M1#g VSS 1.62566e-17
CE4 MX37/M0#g VSS 1.66074e-17
CE5 C0#21 VSS 1.63006e-17
CE6 C0#22 VSS 9.33951e-18
CE7 C0 VSS 2.54658e-17
CE8 MX33/M0#g 2#14 2.56874e-18
CE9 MX33/M1#g MX33/M0#s 2.18934e-18
CE10 MX33/M0#g MX33/M1#d 1.88021e-18
CE11 MX33/M1#g 2#13 1.63552e-18
CE12 C0#21 2#14 3.2021e-18
CE13 C0 2#14 1.57572e-17
CE14 MX33/M1#g MX33/M1#d 1.02232e-17
CE15 C0 MX33/M0#s 5.68042e-18
CE16 MX33/M0#g MX33/M0#s 9.87446e-18
CE17 C0#21 MX33/M0#s 2.65067e-18
CE18 C0#22 2#14 4.54433e-18
CE19 C0#22 MX33/M0#s 3.04393e-18
CE20 C0 Y#9 2.46476e-18
CE21 MX33/M1#g Y#12 2.21473e-18
CE22 MX33/M0#g Y#12 2.13838e-18
CE23 C0#21 Y#19 1.87265e-18
CE24 MX37/M1#g Y#18 1.81149e-18
CE25 C0#22 Y#9 1.69406e-18
CE26 MX33/M1#g Y#16 1.61871e-18
CE27 MX33/M0#g Y#16 1.42672e-18
CE28 C0#21 Y#18 1.40295e-18
CE29 MX37/M1#g Y#9 1.19522e-18
CE30 MX37/M0#g Y#15 1.19341e-18
CE31 MX33/M0#g MX33/M0#d 6.39213e-18
CE32 C0#22 Y#20 4.69017e-18
CE33 MX33/M1#g Y#17 2.64859e-18
CE34 MX33/M1#g MX33/M0#d 6.68654e-18
CE35 C0#21 Y 2.28457e-17
CE36 C0#21 Y#17 2.56609e-17
CE37 MX37/M0#g Y#9 6.03141e-18
CE38 MX37/M0#g Y#19 3.2111e-18
CE39 MX37/M1#g Y#15 6.8796e-18
CE40 C0 Y#20 3.98731e-17
CE41 C0 Y 3.03231e-17
CE42 C0#21 Y#20 3.74703e-18
CE43 C0 Y#17 3.9975e-17
CE44 C0#21 Y#12 3.79674e-18
CE45 MX37/M1#g VSS#14 2.23043e-18
CE46 MX37/M0#g VSS#14 2.23043e-18
CE47 C0#21 VSS#14 1.15507e-18
CE48 MX37/M0#g MX37/M0#d 6.50883e-18
CE49 MX37/M1#g MX37/M0#d 7.06032e-18
CE50 MX37/M1#g VSS#2 4.44283e-18
CE51 MX37/M0#g VSS#2 4.95179e-18
CE52 C0#21 MX37/M0#d 7.28423e-18
CE53 C0#21 VDD#11 1.53831e-18
CE54 MX33/M0#g VDD#1 5.52433e-18
CE55 MX33/M1#g VDD 1.20722e-17
CE56 C0#22 VDD 8.84342e-18
CE57 MX33/M0#g VDD 1.37578e-17
CE58 MX33/M1#g VDD#11 3.18987e-18
CE59 C0#21 VDD 1.27517e-17
CE60 C0 VDD 2.05309e-17
CE61 MX33/M1#g VDD#1 5.81423e-18
CE62 MX33/M0#g VDD#11 3.18987e-18
RgE53 MX33/M1#g C0#15 361.752106 $L=1.145 $W=0.15
RgE54 C0#15 C0#16 20.521515 $L=0.218 $W=0.33
RgE55 C0#16 C0#17 20.521515 $L=0.218 $W=0.33
RgE56 C0#17 C0#18 46.128941 $L=0.1645 $W=0.17
RgE57 C0#18 MX37/M0#g 363.177551 $L=1.13 $W=0.15
RgE58 C0#15 C0#19 46.128941 $L=0.1645 $W=0.17
RgE59 C0#19 MX37/M1#g 363.177551 $L=1.13 $W=0.15
RgE60 C0#17 C0#20 46.131256 $L=0.1645 $W=0.17
RgE61 C0#20 MX33/M0#g 314.977539 $L=0.98 $W=0.15
RfE62 C0#21 C0#22 42.917648 $L=0.57 $W=0.17
ReE63 C0 C0#23 0.012019 $L=0.025 $W=0.26
RjE64 C0#22 C0#23 152.000000 $A=0.0289
RiE65 C0#16 C0#21 7.500000 $A=0.0578
*
*|NET 19 6.57098e-16
*|I (MX36/M0#s MX36/M0 s X 0 3.4995 0.8000)
*|I (MX36/M1#d MX36/M1 d X 0 4.0805 0.8000)
*|I (MX34/M0#s MX34/M0 s X 0 2.6395 0.8000)
*|I (MX34/M1#d MX34/M1 d X 0 3.2205 0.8000)
*|S (19 2.5000 0.8000)
*|S (19#2 2.5000 0.8000)
*|S (19#3 2.5000 0.6750)
*|S (19#5 3.3600 0.8000)
*|S (19#6 3.3600 0.6750)
*|S (19#8 4.2200 0.8000)
*|S (19#9 4.2200 0.6750)
*|S (19#10 4.2200 0.6750)
*|S (19#11 3.3600 0.6750)
*|S (19#12 2.5000 0.6750)
CL1 19#12 VSS 1.46672e-18
CL2 19#11 VSS 1.3604e-18
CL3 19#10 VSS 1.92285e-18
CL4 19#3 VSS 8.53432e-18
CL5 19#6 VSS 3.05406e-18
CL6 19#9 VSS 4.62423e-18
CL7 19#10 VSS#3 4.5368e-18
CL8 19#12 VSS#14 3.79659e-17
CL9 19#11 VSS#14 5.123e-17
CL10 19#11 VSS#3 1.01133e-17
CL11 19#3 VSS#3 6.14451e-18
CL12 19#6 VSS#14 5.04356e-18
CL13 19#10 VSS#14 3.86397e-17
CL14 19#3 MX34/M0#d 2.04282e-17
CL15 19#12 VSS#3 7.19352e-18
CL16 19#6 VSS#3 6.14626e-18
CL17 19#6 MX34/M0#d 1.94374e-17
CL18 19#12 MX34/M0#d 1.34786e-17
CL19 19#11 MX34/M0#d 1.34209e-17
CL20 19#3 VSS#14 5.04356e-18
CL21 19#9 VSS#2 7.39728e-18
CL22 19#9 VSS#14 5.04356e-18
RfL175 19#2 19#3 9.411764 $L=0.125 $W=0.17
RfL176 19#5 19#6 9.411764 $L=0.125 $W=0.17
RfL177 19#8 19#9 9.411764 $L=0.125 $W=0.17
ReL178 19#10 19#11 0.632353 $L=0.86 $W=0.17
ReL179 19#11 19#12 0.632353 $L=0.86 $W=0.17
RhL180 19 19#2 15.000000 $A=0.0289
RhL181 MX36/M0#s 19#5 15.000000 $A=0.0289
RhL182 MX36/M1#d 19#8 15.000000 $A=0.0289
RjL183 19#9 19#10 152.000000 $A=0.0289
RjL184 19#6 19#11 152.000000 $A=0.0289
RjL185 19#3 19#12 152.000000 $A=0.0289
RmwL186 MX34/M0#s 19 0.001000 $W=1000000
RmwL187 MX34/M1#d MX36/M0#s 0.001000 $W=1000000
*
*|NET 2 1.03452e-15
*|I (MX33/M0#s MX33/M0 s X 0 4.8795 3.2400)
*|I (MX33/M1#d MX33/M1 d X 0 5.4605 3.2400)
*|I (MX32/M0#d MX32/M0 d X 0 3.1305 3.2400)
*|I (MX32/M1#s MX32/M1 s X 0 3.4095 3.2400)
*|I (MX31/M0#d MX31/M0 d X 0 2.2705 3.2400)
*|I (MX31/M1#s MX31/M1 s X 0 2.5495 3.2400)
*|S (2 2.4100 3.3250)
*|S (2#3 2.4100 3.2400)
*|S (2#4 3.2700 3.3250)
*|S (2#6 3.2700 3.2400)
*|S (2#7 4.7400 3.3250)
*|S (2#9 4.7400 3.2400)
*|S (2#10 5.6000 3.3250)
*|S (2#12 5.6000 3.2400)
*|S (2#13 5.6000 3.3250)
*|S (2#14 4.7400 3.3250)
*|S (2#15 3.2700 3.3250)
*|S (2#16 2.4100 3.3250)
CJ1 MX31/M0#d VSS 1.73472e-18
CJ2 MX32/M0#d VSS 2.37845e-18
CJ3 MX33/M0#s VSS 4.41953e-18
CJ4 2#16 VSS 4.08534e-18
CJ5 2#15 VSS 8.08419e-18
CJ6 2#14 VSS 1.79506e-17
CJ7 2#13 VSS 2.20469e-18
RfJ145 2 2#3 6.400000 $L=0.085 $W=0.17
RfJ146 2#4 2#6 6.400000 $L=0.085 $W=0.17
RfJ147 2#7 2#9 6.400000 $L=0.085 $W=0.17
RfJ148 2#10 2#12 6.400000 $L=0.085 $W=0.17
ReJ149 2#13 2#14 0.632353 $L=0.86 $W=0.17
ReJ150 2#14 2#15 1.080882 $L=1.47 $W=0.17
ReJ151 2#15 2#16 0.632353 $L=0.86 $W=0.17
Rh_2_J152 MX31/M0#d 2#3 15.000000 $A=0.0289
Rh_2_J153 MX32/M0#d 2#6 15.000000 $A=0.0289
Rh_2_J154 MX33/M0#s 2#9 15.000000 $A=0.0289
Rh_2_J155 MX33/M1#d 2#12 15.000000 $A=0.0289
RjJ156 2#10 2#13 152.000000 $A=0.0289
RjJ157 2#7 2#14 152.000000 $A=0.0289
RjJ158 2#4 2#15 152.000000 $A=0.0289
RjJ159 2 2#16 152.000000 $A=0.0289
RmwJ160 MX32/M1#s MX32/M0#d 0.001000 $W=1000000
RmwJ161 MX31/M1#s MX31/M0#d 0.001000 $W=1000000
*
*|NET VDD 1.41426e-15
*|P (VDD X 0 2.8050 4.1450)
*|I (MX39/M0#d MX39/M0 d X 0 0.5505 3.2400)
*|I (MX39/M1#s MX39/M1 s X 0 0.8295 3.2400)
*|I (MX30/M0#d MX30/M0 d X 0 1.4105 3.2400)
*|I (MX30/M1#s MX30/M1 s X 0 1.6895 3.2400)
*|S (VDD#1 2.9900 4.1400)
*|S (VDD#2 2.9900 4.1400)
*|S (VDD#4 1.5500 4.1400)
*|S (VDD#5 0.6900 4.1400)
*|S (VDD#6 0.0000 4.1400)
*|S (VDD#8 1.5500 3.2400)
*|S (VDD#10 0.6900 3.2400)
*|S (VDD#11 2.9900 4.1400)
CF1 MX30/M0#d VSS 6.82802e-18
CF2 MX39/M0#d VSS 1.68758e-18
CF3 VDD#11 VSS 3.9079e-18
CF4 VDD#5 VSS 4.75929e-18
CF5 VDD#4 VSS 1.59057e-18
CF6 VDD#6 VSS 4.94076e-19
CF7 VDD#1 VSS 7.95352e-18
CF8 VDD#1 MX31/M0#d 7.29445e-18
CF9 VDD MX33/M1#d 1.6418e-17
CF10 VDD#11 2#15 4.83008e-17
CF11 VDD#1 MX33/M0#s 6.21903e-18
CF12 VDD 2#15 1.02099e-17
CF13 VDD 2#14 2.85493e-17
CF14 VDD#11 MX31/M0#d 6.02335e-18
CF15 VDD 2#13 2.46787e-17
CF16 VDD#1 2#14 1.65546e-17
CF17 VDD#1 2#16 7.49767e-18
CF18 VDD#11 2#16 2.83739e-17
CF19 VDD#11 MX33/M0#s 6.02335e-18
CF20 VDD#11 2#13 2.86672e-17
CF21 VDD#11 MX32/M0#d 6.02335e-18
CF22 VDD#1 MX32/M0#d 7.29445e-18
CF23 VDD#1 2#13 7.93664e-18
CF24 VDD#11 MX33/M1#d 6.16091e-18
CF25 VDD#1 2#15 1.40096e-17
CF26 VDD#11 2#14 5.28793e-17
CF27 VDD#1 MX33/M1#d 7.29297e-18
CF28 VDD#4 MX31/M0#s 6.08547e-18
CF29 VDD#11 MX32/M1#d 5.86303e-18
CF30 VDD#11 MX32/M0#s 5.84411e-18
CF31 VDD 1#9 5.83191e-18
CF32 VDD 1#12 5.53042e-18
CF33 VDD#6 1 4.67931e-18
CF34 VDD#4 1#18 4.13139e-18
CF35 VDD#5 MX39/M1#d 2.42237e-18
CF36 VDD#4 MX39/M1#d 2.39874e-18
CF37 VDD#5 1#19 2.05238e-18
CF38 VDD#4 1#19 2.04803e-18
CF39 VDD#6 1#20 1.88754e-18
CF40 MX39/M0#d 1#3 1.01516e-17
CF41 MX30/M0#d 1#18 1.17985e-17
CF42 MX39/M0#d MX39/M1#d 2.55254e-17
CF43 VDD#11 1 6.36745e-18
CF44 MX30/M0#d 1#19 1.1726e-17
CF45 MX30/M0#d MX39/M1#d 2.55254e-17
CF46 VDD 1#20 2.07165e-17
CF47 VDD 1#19 6.65833e-18
CF48 VDD 1#18 1.23933e-17
CF49 VDD 1#17 1.83557e-17
CF50 MX39/M0#d 1#19 1.13791e-17
CF51 VDD 1#16 2.87449e-17
CF52 MX39/M0#d 1 2.55254e-17
CF53 VDD#11 1#20 1.54474e-17
CF54 MX30/M0#d 1#9 1.01522e-17
CF55 VDD#11 MX31/M0#s 6.38806e-18
CF56 VDD 1#3 1.24963e-17
CF57 MX30/M0#d 1#6 1.01522e-17
CF58 VDD 1#6 8.93088e-18
CF59 VDD#11 1#19 1.89159e-17
CF60 VDD 1 1.52389e-17
CF61 VDD#1 MX32/M1#d 7.3262e-18
CF62 VDD#1 MX32/M0#s 7.3262e-18
CF63 MX39/M0#d 1#20 1.14432e-17
CF64 VDD#11 1#18 1.67718e-17
CF65 VDD#11 MX39/M1#d 6.36745e-18
CF66 MX30/M0#d MX31/M0#s 2.38874e-17
CF67 MX39/M0#d 1#6 1.01522e-17
CF68 VDD 1#15 8.03579e-18
CF69 VDD#1 MX33/M0#d 6.90124e-18
CF70 VDD Y#20 5.96826e-18
CF71 VDD#11 MX33/M0#d 5.67961e-18
CF72 VDD#4 Y#24 2.83989e-18
CF73 VDD#1 Y#20 2.76689e-18
CF74 VDD Y 2.22751e-18
CF75 VDD Y#21 2.85809e-17
CF76 VDD Y#16 1.66043e-17
CF77 VDD Y#17 4.20017e-17
CF78 VDD#1 Y#21 8.93194e-18
CF79 VDD Y#24 8.23706e-18
RfF66 VDD#1 VDD#4 73.452812 $L=1.44 $W=0.25
RfF67 VDD#4 VDD#5 43.481621 $L=0.86 $W=0.25
RfF68 VDD#5 VDD#6 35.052811 $L=0.69 $W=0.25
RfF69 VDD#4 VDD#8 61.156857 $L=0.9 $W=0.17
RfF70 VDD#5 VDD#10 61.156857 $L=0.9 $W=0.17
ReF71 VDD#11 VDD 0.057813 $L=0.185 $W=0.4
Rh_1_F72 VDD#2 VDD#1 1.250000 $A=0.3468
Rh_2_F73 MX30/M0#d VDD#8 15.000000 $A=0.0289
Rh_2_F74 MX39/M0#d VDD#10 15.000000 $A=0.0289
RjF75 VDD#1 VDD#11 12.666667 $A=0.3468
RmwF76 MX39/M1#s MX39/M0#d 0.001000 $W=1000000
RmwF77 MX30/M1#s MX30/M0#d 0.001000 $W=1000000
*
*|NET VSS 1.86126e-15
*|P (VSS X 0 2.8050 0.0050)
*|I (MX38/M0#d MX38/M0 d X 0 0.5505 0.8000)
*|I (MX38/M1#s MX38/M1 s X 0 0.8295 0.8000)
*|I (MX37/M0#d MX37/M0 d X 0 5.0305 0.8000)
*|I (MX37/M1#s MX37/M1 s X 0 5.3095 0.8000)
*|I (MX34/M0#d MX34/M0 d X 0 2.7905 0.8000)
*|I (MX34/M1#s MX34/M1 s X 0 3.0695 0.8000)
*|S (VSS#1 5.9795 0.0000)
*|S (VSS#2 5.1700 0.0000)
*|S (VSS#3 2.9900 0.0000)
*|S (VSS#4 2.9900 0.0000)
*|S (VSS#7 5.1700 0.8000)
*|S (VSS#8 0.6900 0.0000)
*|S (VSS#9 0.0000 0.0000)
*|S (VSS#11 2.9300 0.8000)
*|S (VSS#13 0.6900 0.8000)
*|S (VSS#14 2.9900 0.0000)
RfG78 VSS#1 VSS#2 41.171211 $L=0.8095 $W=0.25
RfG79 VSS#2 VSS#3 111.340813 $L=2.18 $W=0.25
RfG80 VSS#2 VSS#7 53.627445 $L=0.8 $W=0.17
RfG81 VSS#3 VSS#8 117.484810 $L=2.3 $W=0.25
RfG82 VSS#8 VSS#9 35.052811 $L=0.69 $W=0.25
RfG83 VSS#3 VSS#11 57.223530 $L=0.8 $W=0.17
RfG84 VSS#8 VSS#13 53.627445 $L=0.8 $W=0.17
ReG85 VSS#14 VSS 0.057813 $L=0.185 $W=0.4
RhG86 MX37/M0#d VSS#7 15.000000 $A=0.0289
RhG87 MX34/M0#d VSS#11 15.000000 $A=0.0289
RhG88 MX38/M0#d VSS#13 15.000000 $A=0.0289
Rh_3_G89 VSS#4 VSS#3 1.250000 $A=0.3468
RjG90 VSS#3 VSS#14 12.666667 $A=0.3468
RmwG91 MX38/M1#s MX38/M0#d 0.001000 $W=1000000
RmwG92 MX37/M1#s MX37/M0#d 0.001000 $W=1000000
RmwG93 MX34/M1#s MX34/M0#d 0.001000 $W=1000000
*
*|NET A0 5.08025e-16
*|P (A0 X 0 0.4750 1.8400)
*|I (MX38/M0#g MX38/M0 g X 0 0.4750 0.8000)
*|I (MX38/M1#g MX38/M1 g X 0 0.9050 0.8000)
*|I (MX39/M0#g MX39/M0 g X 0 0.4750 3.2400)
*|I (MX39/M1#g MX39/M1 g X 0 0.9050 3.2400)
*|S (A0#15 0.9050 2.0950)
*|S (A0#16 0.6900 2.0950)
*|S (A0#17 0.4650 2.0950)
*|S (A0#18 0.4650 1.9300)
*|S (A0#19 0.9150 1.9300)
*|S (A0#20 0.4650 2.2595)
*|S (A0#21 0.6900 2.0950)
*|S (A0#22 0.4600 2.0950)
*|S (A0#23 0.4600 2.0950)
CA1 MX39/M1#g VSS 3.08385e-18
CA2 MX39/M0#g VSS 1.08319e-18
CA3 MX38/M1#g VSS 1.62857e-17
CA4 MX38/M0#g VSS 1.64072e-17
CA5 A0#21 VSS 2.55849e-17
CA6 A0 VSS 6.8371e-17
CA7 MX38/M0#g 17#12 2.51855e-18
CA8 MX38/M0#g 17#6 1.27451e-18
CA9 MX38/M0#g 17#3 6.92637e-18
CA10 A0 17#3 4.35966e-18
CA11 A0#21 17#11 3.22958e-18
CA12 A0#21 17#3 4.82544e-18
CA13 A0 17#12 2.43633e-17
CA14 MX38/M1#g 17#11 3.18201e-18
CA15 MX38/M1#g 17#6 5.2823e-18
CA16 A0#21 17#12 4.85898e-18
CA17 MX39/M0#g MX39/M1#d 1.51415e-18
CA18 MX39/M1#g 1 1.39769e-18
CA19 A0 1#3 2.58049e-18
CA20 MX39/M1#g 1#6 3.11808e-18
CA21 A0#21 1#20 9.88334e-18
CA22 MX39/M0#g 1#20 2.99559e-18
CA23 MX39/M1#g 1#19 2.99559e-18
CA24 MX39/M0#g 1#3 4.06387e-18
CA25 MX39/M0#g 1 7.3972e-18
CA26 A0#21 1#3 6.13809e-18
CA27 MX39/M1#g MX39/M1#d 5.60551e-18
CA28 A0#21 1#19 8.55878e-18
CA29 A0 1#20 2.07033e-17
CA30 A0#21 VSS#14 2.30408e-18
CA31 MX38/M0#g VSS#14 2.23043e-18
CA32 MX38/M1#g VSS#14 2.23043e-18
CA33 MX38/M0#g MX38/M0#d 7.12611e-18
CA34 MX38/M1#g MX38/M0#d 6.22807e-18
CA35 MX38/M1#g VSS#8 4.31834e-18
CA36 MX38/M0#g VSS#8 4.29097e-18
CA37 A0#21 MX38/M0#d 6.46309e-18
CA38 MX39/M1#g MX39/M0#d 8.7194e-18
CA39 MX39/M1#g VDD#11 4.05069e-18
CA40 MX39/M1#g VDD#5 4.34129e-18
CA41 MX39/M0#g MX39/M0#d 1.01543e-17
CA42 MX39/M1#g VDD 1.55237e-17
CA43 A0#21 VDD#11 4.24667e-18
CA44 MX39/M0#g VDD 1.55237e-17
CA45 A0#21 MX39/M0#d 3.17899e-18
CA46 A0#21 VDD 2.20616e-17
CA47 MX39/M0#g VDD#11 4.05069e-18
CA48 MX39/M0#g VDD#5 4.34129e-18
CA49 A0 VDD 2.07386e-17
CA50 A0 A1#21 1.2452e-17
CA51 A0 A1#23 2.29314e-17
CA52 A0#21 A1 1.22108e-17
CA53 MX38/M1#g A1#21 4.10769e-18
CA54 A0#21 A1#21 1.18872e-17
CA55 A0 A1 2.37258e-17
RgA1 MX39/M1#g A0#15 361.752106 $L=1.145 $W=0.15
RgA2 A0#15 A0#16 20.521515 $L=0.218 $W=0.33
RgA3 A0#16 A0#17 20.521515 $L=0.218 $W=0.33
RgA4 A0#17 A0#18 46.128941 $L=0.1645 $W=0.17
RgA5 A0#18 MX38/M0#g 363.177551 $L=1.13 $W=0.15
RgA6 A0#15 A0#19 46.128941 $L=0.1645 $W=0.17
RgA7 A0#19 MX38/M1#g 363.177551 $L=1.13 $W=0.15
RgA8 A0#17 A0#20 46.131256 $L=0.1645 $W=0.17
RgA9 A0#20 MX39/M0#g 314.977539 $L=0.98 $W=0.15
RfA10 A0#21 A0#22 17.317646 $L=0.23 $W=0.17
ReA11 A0 A0#23 0.122596 $L=0.255 $W=0.26
RjA12 A0#22 A0#23 152.000000 $A=0.0289
RiA13 A0#16 A0#21 7.500000 $A=0.0578
*
*|NET B0 4.70193e-16
*|P (B0 X 0 3.2350 2.0600)
*|I (MX36/M0#g MX36/M0 g X 0 3.5750 0.8000)
*|I (MX36/M1#g MX36/M1 g X 0 4.0050 0.8000)
*|I (MX32/M0#g MX32/M0 g X 0 3.0550 3.2400)
*|I (MX32/M1#g MX32/M1 g X 0 3.4850 3.2400)
*|S (B0#15 3.5750 1.6100)
*|S (B0#16 3.4550 2.0950)
*|S (B0#17 3.1895 2.0800)
*|S (B0#18 3.0550 2.0950)
*|S (B0#19 3.4850 2.1700)
*|S (B0#20 3.0550 2.2595)
*|S (B0#21 3.2200 2.0950)
*|S (B0#22 3.0550 2.0950)
*|S (B0#23 3.2200 2.0950)
CC1 MX32/M1#g VSS 1.43658e-18
CC2 MX32/M0#g VSS 1.31825e-18
CC3 MX36/M1#g VSS 9.01252e-18
CC4 MX36/M0#g VSS 1.65713e-17
CC5 B0#22 VSS 1.54158e-17
CC6 B0 VSS 3.28227e-17
CC7 B0#22 19#6 2.00705e-18
CC8 MX36/M0#g 19#11 1.97994e-18
CC9 MX36/M1#g 19#10 1.97994e-18
CC10 MX36/M1#g 19#6 1.06442e-18
CC11 MX36/M0#g 19#9 1.02498e-18
CC12 B0 19#6 2.4444e-18
CC13 MX36/M0#g 19#6 5.26975e-18
CC14 MX36/M1#g 19#9 6.06866e-18
CC15 MX32/M1#g MX33/M0#s 1.58001e-18
CC16 MX32/M0#g 2#15 1.53442e-18
CC17 MX32/M1#g 2#15 1.53442e-18
CC18 MX32/M0#g MX31/M0#d 1.50737e-18
CC19 MX36/M1#g 2#14 1.30958e-18
CC20 B0#22 MX32/M0#d 4.12639e-18
CC21 MX32/M0#g MX32/M0#d 7.78731e-18
CC22 B0 MX32/M0#d 5.15499e-18
CC23 MX32/M1#g MX32/M0#d 8.54457e-18