*
*|DSPF 1.5
*
*|DATE "Fri Feb 28 13:39:47 2025"
*|VENDOR "Cadence Design Systems"
*|PROGRAM "Cadence Quantus Extraction"
*|VERSION "22.1.0-p089 Linux 64 bit - (Thu Jan 19 11:47:08 PST 2023)"
*|DESIGN "CLKXOR2X1_LP"
*|DIVIDER /
*|DELIMITER #
*|DeviceFingerDelim "@"
*|BUSBIT []
*|GLOBAL_TEMPERATURE 25
*|OPERATING_TEMPERATURE 25
** QRC_TECH_DIR /vols/wfo_devel/projects/reference_SKY130/tech/sky130_release_0.0.4/quantus/extraction/typical 
** HIERARCHICAL_SPLIT_PINS_DELIMITER '%'
** caps2d version: 10
*
.SUBCKT  CLKXOR2X1_LP A B VDD VSS Y
*
*Net Section
*
*|GROUND_NET VSS
*
*|NET VDD 8.83593e-16
*|P (VDD X 0 1.5250 4.1450)
*|I (MX33/M0#s MX33/M0 s X 0 2.6095 3.2800)
*|I (MX19/M0#s MX19/M0 s X 0 0.5505 3.2800)
*|I (MM0#s MM0 s X 0 0.8295 3.2800)
*|I (MM1#d MM1 d X 0 2.2705 3.2800)
*|S (VDD#1 4.5995 4.1400)
*|S (VDD#2 2.4700 4.1400)
*|S (VDD#3 2.3000 4.1400)
*|S (VDD#4 2.3000 4.1400)
*|S (VDD#6 0.6900 4.1400)
*|S (VDD#7 0.0000 4.1400)
*|S (VDD#9 2.4700 3.2800)
*|S (VDD#11 0.6900 3.2800)
*|S (VDD#12 2.3000 4.1400)
CC1 MX33/M0#s VSS 1.6053e-18
CC2 VDD#12 VSS 5.27541e-18
CC3 VDD#6 VSS 7.53886e-18
CC4 VDD#2 VSS 4.37105e-18
CC5 VDD#7 VSS 5.56301e-19
CC6 VDD VSS 1.93028e-19
CC7 MX33/M0#s 19 2.02585e-17
CC8 VDD 19 8.75784e-18
CC9 VDD#2 19 6.06011e-18
CC10 VDD#12 19 5.64848e-18
CC11 VDD#2 12 4.31255e-18
CC12 VDD#12 12 3.13721e-18
CC13 VDD#12 MX26/M3#g 3.02996e-18
CC14 VDD#12 12#32 3.12878e-17
CC15 VDD#2 12#33 6.39474e-18
CC16 VDD#12 12#30 1.29846e-17
CC17 MX33/M0#s 12 9.47613e-18
CC18 VDD 12#34 4.99063e-18
CC19 VDD 12#33 8.32056e-18
CC20 MX33/M0#s 12#33 2.89001e-17
CC21 VDD 12 1.47203e-17
CC22 VDD#2 12#32 5.57709e-18
CC23 VDD#2 MX32/M0#d 4.90246e-18
CC24 VDD#12 MX32/M0#d 5.39932e-18
CC25 VDD#12 12#33 3.09551e-17
CC26 VDD 2#12 3.06294e-18
CC27 VDD#12 2 2.95077e-18
CC28 VDD#6 2#19 2.65142e-18
CC29 VDD 2#19 1.85238e-18
CC30 MX33/M0#s 2#20 1.50877e-18
CC31 VDD 2#21 6.06358e-18
CC32 VDD 2#20 1.87912e-17
CC33 VDD#12 MX20/M0#d 6.03498e-18
CC34 VDD#6 MX20/M0#d 6.04896e-18
CC35 MX19/M0#s MX20/M0#d 2.01036e-17
CC36 VDD#2 2 5.77573e-18
CC37 MX33/M0#s 2 7.45633e-18
CC38 VDD#12 2#19 1.43114e-17
CC39 MX19/M0#s 2#12 7.5025e-18
CC40 MX19/M0#s 2#19 4.79498e-18
CC41 VDD 2 1.54915e-17
CC42 VDD 2#16 7.3059e-18
CC43 VDD 2#17 5.97934e-18
CC44 VDD#12 1 2.95077e-18
CC45 VDD#7 1#18 2.83331e-18
CC46 VDD#6 1#18 1.66843e-18
CC47 VDD 1#12 9.19812e-18
CC48 MX19/M0#s 1#12 2.58685e-17
CC49 MX19/M0#s 1#18 7.45822e-18
CC50 VDD#12 1#18 1.86559e-17
CC51 VDD 1#21 1.91043e-17
CC52 VDD#7 1#12 4.64656e-18
CC53 VDD 1#18 4.73733e-17
CC54 VDD#12 1#12 6.05852e-18
CC55 VDD 1 1.73445e-17
CC56 VDD#2 1 5.77573e-18
CC57 MX33/M0#s Y#4 4.36556e-18
CC58 VDD#1 Y#11 3.9676e-18
CC59 VDD MX33/M0#d 3.55226e-18
CC60 VDD#2 Y#11 2.77681e-18
CC61 VDD#2 MX33/M0#d 6.04287e-18
CC62 MX33/M0#s Y#13 1.0226e-17
CC63 VDD Y#13 4.0539e-17
CC64 VDD#12 MX33/M0#d 5.11645e-18
CC65 VDD#12 Y#13 3.09639e-17
CC66 VDD Y 3.35071e-17
CC67 VDD#2 Y#13 7.29739e-18
CC68 MX33/M0#s MX33/M0#d 1.98508e-17
RfC26 VDD#1 VDD#2 108.755219 $L=2.1295 $W=0.25
RfC27 VDD#2 VDD#3 8.428811 $L=0.17 $W=0.25
RfC28 VDD#3 VDD#6 82.156815 $L=1.61 $W=0.25
RfC29 VDD#6 VDD#7 35.052811 $L=0.69 $W=0.25
RfC30 VDD#2 VDD#9 58.145092 $L=0.86 $W=0.17
RfC31 VDD#6 VDD#11 58.145092 $L=0.86 $W=0.17
ReC32 VDD#12 VDD 0.242188 $L=0.775 $W=0.4
Rh_1_C33 VDD#4 VDD#3 1.666667 $A=0.2601
Rh_2_C34 MX33/M0#s VDD#9 15.000000 $A=0.0289
Rh_2_C35 MX19/M0#s VDD#11 15.000000 $A=0.0289
RjC36 VDD#3 VDD#12 16.888889 $A=0.2601
RmwC37 MM0#s MX19/M0#s 0.001000 $W=1000000
RmwC38 MM1#d MX33/M0#s 0.001000 $W=1000000
*
*|NET 2 1.22563e-15
*|I (MX24/M0#g MX24/M0 g X 0 2.1950 0.7450)
*|I (MX23/M0#d MX23/M0 d X 0 0.9805 0.7450)
*|I (MX22/M0#s MX22/M0 s X 0 1.2595 0.7450)
*|I (MX20/M0#d MX20/M0 d X 0 1.2595 3.2800)
*|I (MM0#d MM0 d X 0 0.9805 3.2800)
*|I (MM1#g MM1 g X 0 2.1950 3.2800)
*|S (2 2.1950 3.2800)
*|S (2#8 2.1950 2.0950)
*|S (2#9 2.1950 1.9300)
*|S (2#11 1.1200 3.2800)
*|S (2#12 1.1200 3.0650)
*|S (2#13 1.1200 0.8750)
*|S (2#15 1.1200 0.7450)
*|S (2#16 2.1950 2.0950)
*|S (2#17 1.9445 2.0950)
*|S (2#18 1.8600 2.0950)
*|S (2#19 1.1200 3.0650)
*|S (2#20 1.8650 3.0650)
*|S (2#21 1.8600 2.0950)
*|S (2#22 1.8600 1.9500)
*|S (2#23 1.8950 0.9300)
*|S (2#24 1.2645 0.9025)
*|S (2#25 1.1200 0.8750)
CG1 MX20/M0#d VSS 1.43798e-18
CG2 MX23/M0#d VSS 4.28001e-18
CG3 MX24/M0#g VSS 2.09109e-17
CG4 2#25 VSS 7.82122e-18
CG5 2#23 VSS 2.55619e-17
CG6 2#21 VSS 6.90176e-18
CG7 2#19 VSS 2.06349e-18
CG8 2#20 VSS 1.65193e-18
CG9 2#16 VSS 1.21886e-17
CG10 2#17 VSS 7.01015e-18
CG11 2#12 VSS 1.41315e-18
CG12 2 VSS 2.48701e-18
CG13 2#23 17 9.33116e-18
CG14 2#20 19 1.56564e-17
CG15 2#16 19 2.92884e-18
CG16 MX24/M0#g 17 6.54923e-18
CG17 2#16 17 2.14951e-18
CG18 2#17 19 4.01642e-18
CG19 2#17 17 1.36254e-18
CG20 2#12 19 1.38072e-18
CG21 2 19 8.13587e-18
CG22 2#23 MX25/M0#d 6.10756e-18
CG23 2#21 12#31 6.03488e-18
CG24 MX20/M0#d 12#32 5.95842e-18
CG25 MX23/M0#d 12#36 5.9389e-18
CG26 MX23/M0#d 12#29 5.92486e-18
CG27 2#21 12#33 5.27888e-18
CG28 MX24/M0#g 12#31 4.00662e-18
CG29 2#19 MX32/M0#d 3.84829e-18
CG30 2 12#33 2.64015e-18
CG31 2#23 MX32/M0#d 2.06267e-18
CG32 2#16 12#33 1.84543e-18
CG33 2#16 12#35 1.8153e-18
CG34 MX24/M0#g 12#35 1.30493e-18
CG35 2#23 12#35 2.91743e-17
CG36 MX20/M0#d MX32/M0#d 1.75379e-17
CG37 2#12 MX32/M0#d 7.03394e-18
CG38 2#20 12#32 4.81585e-17
CG39 2#20 MX32/M0#d 9.85358e-18
CG40 2#16 12#31 1.34343e-17
CG41 2#23 12#34 2.41419e-17
CG42 2#25 MX25/M0#d 6.83117e-18
CG43 2#20 12#33 4.2283e-17
CG44 2#25 12#36 1.51752e-17
CG45 2#19 12#32 9.85905e-18
CG46 2#16 12#34 1.94746e-17
CG47 2#21 12#34 8.42552e-17
CG48 2#23 12#36 5.44211e-17
CG49 MX23/M0#d MX25/M0#d 1.36577e-17
CG50 MX23/M0#d VSS#17 5.95435e-18
CG51 MX23/M0#d VSS#9 5.6519e-18
CG52 2#25 MX23/M0#s 5.21225e-18
CG53 2#25 VSS#9 5.08966e-18
CG54 2#25 VSS#17 2.21275e-17
CG55 MX23/M0#d MX23/M0#s 2.16135e-17
CG56 2#23 MX26/M0#s 6.26351e-18
CG57 MX24/M0#g MX26/M0#s 6.89747e-18
CG58 MX24/M0#g VSS#5 6.35575e-18
RgG93 2 2#8 361.939087 $L=1.185 $W=0.15
RgG94 2#8 2#9 34.134449 $L=0.1645 $W=0.27
RgG95 2#9 MX24/M0#g 380.824615 $L=1.185 $W=0.15
RfG96 2#11 2#12 16.188236 $L=0.215 $W=0.17
RfG97 2#13 2#15 9.788236 $L=0.13 $W=0.17
RfG98 2#16 2#17 18.833225 $L=0.25 $W=0.17
RfG99 2#17 2#18 4.059692 $L=0.0845 $W=0.33
ReG100 2#19 2#20 0.531671 $L=0.745 $W=0.17
ReG101 2#20 2#21 0.784368 $L=0.97 $W=0.14
ReG102 2#21 2#22 0.088170 $L=0.1445 $W=0.23
ReG103 2#22 2#23 0.881569 $L=1.02 $W=0.14
ReG104 2#23 2#24 0.425065 $L=0.63 $W=0.17
ReG105 2#24 2#25 0.085419 $L=0.1445 $W=0.225
RhG106 MX23/M0#d 2#15 15.000000 $A=0.0289
Rh_2_G107 MX20/M0#d 2#11 15.000000 $A=0.0289
RjG108 2#12 2#19 152.000000 $A=0.0289
RjG109 2#18 2#21 152.000000 $A=0.0289
RjG110 2#13 2#25 152.000000 $A=0.0289
RiG111 2#8 2#16 15.000000 $A=0.0289
RmwG112 MX22/M0#s MX23/M0#d 0.001000 $W=1000000
RmwG113 MM0#d MX20/M0#d 0.001000 $W=1000000
RmwG114 MM1#g 2 0.001000 $W=1000000
*
*|NET Y 1.21561e-15
*|P (Y X 0 2.7750 2.2500)
*|I (MX26/M0#d MX26/M0 d X 0 2.7605 0.9450)
*|I (MX26/M1#s MX26/M1 s X 0 3.0395 0.9450)
*|I (MX26/M2#d MX26/M2 d X 0 3.6205 0.9450)
*|I (MX26/M3#s MX26/M3 s X 0 3.8995 0.9450)
*|I (MX33/M0#d MX33/M0 d X 0 2.7605 3.2800)
*|S (Y#1 2.9000 3.3050)
*|S (Y#3 2.9000 3.2800)
*|S (Y#4 2.9000 3.0200)
*|S (Y#5 2.9000 0.9800)
*|S (Y#7 2.9000 0.9450)
*|S (Y#8 3.7600 0.9800)
*|S (Y#10 3.7600 0.9450)
*|S (Y#11 3.7600 0.9800)
*|S (Y#12 2.9000 0.9800)
*|S (Y#13 2.9000 3.0200)
*|S (Y#14 2.9000 3.3050)
CE1 MX33/M0#d VSS 2.11096e-18
CE2 MX26/M2#d VSS 4.25718e-18
CE3 MX26/M0#d VSS 4.20232e-18
CE4 Y#13 VSS 2.97973e-18
CE5 Y#12 VSS 2.55793e-17
CE6 Y#11 VSS 5.36757e-17
CE7 Y#4 VSS 1.76634e-18
CE8 Y VSS 2.28878e-17
CE9 Y#11 MX26/M3#g 4.73891e-18
CE10 Y#13 12 2.60916e-18
CE11 MX26/M0#d 12#35 2.27698e-18
CE12 MX26/M2#d MX26/M1#g 1.8297e-18
CE13 MX26/M0#d MX26/M2#g 1.8297e-18
CE14 Y#4 12 1.67895e-18
CE15 Y#12 12#30 6.37141e-17
CE16 Y 12#34 1.02364e-16
CE17 Y 12#33 1.26498e-17
CE18 MX33/M0#d 12 7.16016e-18
CE19 Y#12 12#35 7.19635e-17
CE20 Y#12 12#34 9.55184e-17
CE21 MX26/M0#d 12#30 2.17217e-17
CE22 MX26/M0#d MX26/M0#g 1.07451e-17
CE23 MX26/M0#d MX26/M1#g 1.03584e-17
CE24 MX26/M2#d 12#30 2.1849e-17
CE25 MX26/M2#d MX26/M2#g 1.03353e-17
CE26 Y#13 12#33 1.17667e-16
CE27 MX26/M2#d MX26/M3#g 1.15679e-17
CE28 Y#11 12#30 2.54947e-17
CE29 MX26/M2#d VSS#17 5.50374e-18
CE30 MX26/M0#d VSS#17 5.4709e-18
CE31 Y#12 VSS#5 5.3571e-18
CE32 Y#11 VSS#4 4.67732e-18
CE33 Y#12 VSS#4 4.39773e-18
CE34 Y#11 VSS#3 3.43835e-18
CE35 MX26/M0#d VSS#5 2.86727e-18
CE36 MX26/M2#d VSS#4 2.86727e-18
CE37 MX26/M2#d MX26/M3#d 3.65862e-17
CE38 Y#11 MX26/M1#d 2.29411e-17
CE39 Y#12 VSS#17 4.36929e-17
CE40 MX26/M2#d MX26/M1#d 3.60171e-17
CE41 Y#11 VSS#17 3.96896e-17
CE42 Y#12 MX26/M0#s 1.44299e-17
CE43 Y#12 MX26/M1#d 1.47138e-17
CE44 Y#11 MX26/M3#d 1.76405e-17
CE45 MX26/M0#d MX26/M1#d 3.56773e-17
CE46 MX26/M0#d MX26/M0#s 3.59067e-17
RfE58 Y#1 Y#3 1.882353 $L=0.025 $W=0.17
RfE59 Y#3 Y#4 19.576469 $L=0.26 $W=0.17
RfE60 Y#5 Y#7 0.923711 $L=0.035 $W=0.17
RfE61 Y#8 Y#10 0.923711 $L=0.035 $W=0.17
ReE62 Y#11 Y#12 0.147260 $L=0.86 $W=0.73
ReE63 Y#12 Y 0.447183 $L=1.27 $W=0.355
ReE64 Y Y#13 0.271127 $L=0.77 $W=0.355
ReE65 Y#13 Y#14 0.100352 $L=0.285 $W=0.355
RhE66 MX26/M0#d Y#7 7.500000 $A=0.0578
RhE67 MX26/M2#d Y#10 7.500000 $A=0.0578
Rh_2_E68 MX33/M0#d Y#3 15.000000 $A=0.0289
RjE69 Y#8 Y#11 76.000000 $A=0.0578
RjE70 Y#5 Y#12 76.000000 $A=0.0578
RjE71 Y#4 Y#13 152.000000 $A=0.0034
RjE72 Y#1 Y#14 152.000000 $A=0.0289
RmwE73 MX26/M1#s MX26/M0#d 0.001000 $W=1000000
RmwE74 MX26/M3#s MX26/M2#d 0.001000 $W=1000000
*
*|NET B 1.04953e-15
*|P (B X 0 1.3950 2.4050)
*|I (MX25/M0#g MX25/M0 g X 0 1.7650 0.7450)
*|I (MX21/M0#g MX21/M0 g X 0 0.4750 0.7450)
*|I (MX20/M0#g MX20/M0 g X 0 1.3350 3.2800)
*|I (MX19/M0#g MX19/M0 g X 0 0.4750 3.2800)
*|S (B#15 0.4750 2.6000)
*|S (B#16 0.4750 2.4350)
*|S (B#17 0.4750 1.3000)
*|S (B#18 0.4750 1.1350)
*|S (B#19 1.3350 2.7645)
*|S (B#20 1.3350 2.6000)
*|S (B#21 1.7650 1.1350)
*|S (B#22 1.7650 1.3000)
*|S (B#23 1.3800 2.6000)
*|S (B#24 1.3350 2.6000)
*|S (B#25 0.4750 2.6000)
*|S (B#26 1.7650 1.3000)
*|S (B#27 0.4750 1.3000)
*|S (B#28 1.3800 2.6000)
CB1 MX19/M0#g VSS 8.05399e-19
CB2 MX20/M0#g VSS 4.33873e-18
CB3 MX21/M0#g VSS 1.40208e-17
CB4 MX25/M0#g VSS 1.77109e-17
CB5 B#27 VSS 2.0501e-17
CB6 B#26 VSS 2.40928e-17
CB7 B#25 VSS 3.56422e-18
CB8 B#24 VSS 4.13938e-18
CB9 B VSS 4.71467e-18
CB10 B#26 17 6.29539e-18
CB11 MX25/M0#g 17 6.22159e-18
CB12 B#26 12#34 5.10076e-18
CB13 MX25/M0#g MX25/M0#d 3.76262e-18
CB14 B MX32/M0#d 2.71309e-18
CB15 MX25/M0#g 12#29 2.45898e-18
CB16 B#26 MX26/M0#g 1.78214e-18
CB17 MX20/M0#g 12#32 1.42651e-18
CB18 B#24 12#33 1.38716e-18
CB19 MX20/M0#g MX32/M0#d 6.78408e-18
CB20 B#24 MX32/M0#d 6.69951e-18
CB21 B#26 MX25/M0#d 9.44167e-18
CB22 B#24 2#19 4.87341e-18
CB23 MX20/M0#g MX20/M0#d 4.7267e-18
CB24 B#24 2#21 4.71548e-18
CB25 B 2#17 4.2527e-18
CB26 B#26 2#17 3.96247e-18
CB27 B#27 2#25 3.52383e-18
CB28 MX20/M0#g 2#12 2.99365e-18
CB29 B#26 2#20 2.6299e-18
CB30 MX21/M0#g MX23/M0#d 1.67862e-18
CB31 B#24 2#25 1.47871e-18
CB32 MX25/M0#g 2#17 1.29823e-18
CB33 MX19/M0#g MX20/M0#d 1.27677e-18
CB34 B 2#25 1.51787e-17
CB35 B 2#21 8.92654e-17
CB36 B 2#19 4.05131e-17
CB37 B 2#20 2.19599e-17
CB38 B#24 2#12 1.48569e-17
CB39 B#26 MX23/M0#d 7.92421e-18
CB40 B#24 2#20 5.79622e-18
CB41 B#26 2#25 9.30415e-18
CB42 B#27 MX23/M0#d 8.66254e-18
CB43 B#26 2#23 3.47725e-17
CB44 MX19/M0#g 1#18 2.33121e-18
CB45 MX21/M0#g 1#24 2.24251e-18
CB46 MX19/M0#g 1#17 1.68899e-18
CB47 B#25 1#12 6.94253e-18
CB48 B 1#16 3.01891e-17
CB49 MX21/M0#g MX21/M0#d 6.89176e-18
CB50 B#26 1#16 3.77097e-17
CB51 B#25 1#18 2.63014e-17
CB52 B#25 1#17 6.8683e-18
CB53 MX19/M0#g 1#12 8.87701e-18
CB54 B#26 MX22/M0#g 5.99046e-18
CB55 B#27 1#22 3.13014e-17
CB56 B#24 1#16 5.62425e-18
CB57 B#27 1#16 1.81336e-17
CB58 B#27 MX21/M0#d 8.81863e-18
CB59 B#27 1#17 5.36469e-17
CB60 B#26 MX26/M0#s 4.98095e-18
CB61 MX21/M0#g VSS#9 4.06624e-18
CB62 B#27 VSS#17 3.36421e-18
CB63 MX21/M0#g VSS#17 3.18246e-18
CB64 B#27 VSS#9 2.40979e-18
CB65 MX25/M0#g VSS#17 1.74812e-18
CB66 B#26 VSS#9 1.56655e-18
CB67 MX25/M0#g VSS#5 5.44586e-18
CB68 B#27 MX23/M0#s 1.79513e-17
CB69 MX21/M0#g MX23/M0#s 7.3052e-18
CB70 MX19/M0#g VDD#6 3.79895e-18
CB71 MX20/M0#g VDD#12 3.38618e-18
CB72 MX19/M0#g VDD#12 3.35256e-18
CB73 B#25 VDD#12 2.9993e-18
CB74 B#24 VDD#12 2.05911e-18
CB75 MX20/M0#g MX19/M0#s 1.56655e-18
CB76 B#25 MX19/M0#s 1.57764e-17
CB77 MX20/M0#g VDD 1.60132e-17
CB78 B#25 VDD 1.91307e-17
CB79 B#24 VDD 1.61418e-17
CB80 MX19/M0#g MX19/M0#s 9.07616e-18
CB81 B VDD 7.77222e-18
CB82 MX19/M0#g VDD 1.18232e-17
CB83 MX20/M0#g VDD#6 5.08789e-18
RgB8 MX19/M0#g B#15 199.665741 $L=0.68 $W=0.15
RgB9 B#15 B#16 34.134449 $L=0.1645 $W=0.27
RgB10 B#16 B#17 345.917053 $L=1.135 $W=0.15
RgB11 B#17 B#18 34.134449 $L=0.1645 $W=0.27
RgB12 B#18 MX21/M0#g 125.364632 $L=0.39 $W=0.15
RgB13 MX20/M0#g B#19 165.531296 $L=0.515 $W=0.15
RgB14 B#19 B#20 34.134449 $L=0.1645 $W=0.27
RgB15 MX25/M0#g B#21 125.364632 $L=0.39 $W=0.15
RgB16 B#21 B#22 34.134449 $L=0.1645 $W=0.27
RfB17 B#23 B#24 3.388236 $L=0.045 $W=0.17
RfB18 B#24 B#25 64.752945 $L=0.86 $W=0.17
RfB19 B#26 B#27 97.129410 $L=1.29 $W=0.17
ReB20 B B#28 0.093750 $L=0.195 $W=0.26
RjB21 B#23 B#28 152.000000 $A=0.0289
RiB22 B#20 B#24 15.000000 $A=0.0289
RiB23 B#15 B#25 15.000000 $A=0.0289
RiB24 B#22 B#26 15.000000 $A=0.0289
RiB25 B#17 B#27 15.000000 $A=0.0289
*
*|NET VSS 1.62976e-15
*|P (VSS X 0 1.5250 0.0050)
*|I (MX26/M0#s MX26/M0 s X 0 2.6095 0.9450)
*|I (MX26/M1#d MX26/M1 d X 0 3.1905 0.9450)
*|I (MX26/M2#s MX26/M2 s X 0 3.4695 0.9450)
*|I (MX26/M3#d MX26/M3 d X 0 4.0505 0.9450)
*|I (MX24/M0#s MX24/M0 s X 0 2.2705 0.7450)
*|I (MX23/M0#s MX23/M0 s X 0 0.8295 0.7450)
*|I (MX21/M0#s MX21/M0 s X 0 0.5505 0.7450)
*|S (VSS#2 4.1900 0.9450)
*|S (VSS#3 4.3525 0.0000)
*|S (VSS#4 3.3300 0.0000)
*|S (VSS#5 2.4700 0.0000)
*|S (VSS#6 2.3000 0.0000)
*|S (VSS#7 2.3000 0.0000)
*|S (VSS#9 0.6900 0.0000)
*|S (VSS#10 0.0000 0.0000)
*|S (VSS#12 3.3300 0.9450)
*|S (VSS#14 2.4700 0.9450)
*|S (VSS#16 0.6900 0.7450)
*|S (VSS#17 2.3000 0.0000)
RfD39 VSS#2 VSS#3 71.730125 $L=0.945 $W=0.17
RfD40 VSS#3 VSS#4 43.508244 $L=1.0225 $W=0.25
RfD41 VSS#4 VSS#5 43.481621 $L=0.86 $W=0.25
RfD42 VSS#5 VSS#6 8.428811 $L=0.17 $W=0.25
RfD43 VSS#6 VSS#9 82.156815 $L=1.61 $W=0.25
RfD44 VSS#9 VSS#10 35.052811 $L=0.69 $W=0.25
RfD45 VSS#4 VSS#12 64.545090 $L=0.945 $W=0.17
RfD46 VSS#5 VSS#14 64.545090 $L=0.945 $W=0.17
RfD47 VSS#9 VSS#16 49.486267 $L=0.745 $W=0.17
ReD48 VSS#17 VSS 0.242188 $L=0.775 $W=0.4
RhD49 MX26/M3#d VSS#2 7.500000 $A=0.0578
RhD50 MX26/M1#d VSS#12 7.500000 $A=0.0578
RhD51 MX26/M0#s VSS#14 7.500000 $A=0.0578
RhD52 MX23/M0#s VSS#16 15.000000 $A=0.0289
Rh_3_D53 VSS#7 VSS#6 1.666667 $A=0.2601
RjD54 VSS#6 VSS#17 16.888889 $A=0.2601
RmwD55 MX26/M2#s MX26/M1#d 0.001000 $W=1000000
RmwD56 MX24/M0#s MX26/M0#s 0.001000 $W=1000000
RmwD57 MX21/M0#s MX23/M0#s 0.001000 $W=1000000
*
*|NET 17 1.05511e-16
*|I (MX25/M0#s MX25/M0 s X 0 1.8405 0.7450)
*|I (MX24/M0#d MX24/M0 d X 0 2.1195 0.7450)
*|S (17 1.9800 0.7450)
CI1 17 VSS 4.80812e-18
CI2 17 MX26/M0#s 1.68646e-17
CI3 17 VSS#5 4.65121e-18
CI4 17 VSS#17 4.6878e-18
RmwI143 MX25/M0#s 17 0.001000 $W=1000000
RmwI144 MX24/M0#d 17 0.001000 $W=1000000
*
*|NET 19 1.39815e-16
*|I (MX32/M0#s MX32/M0 s X 0 1.8405 3.2800)
*|I (MM1#s MM1 s X 0 2.1195 3.2800)
*|S (19 1.9800 3.2350)
CI5 19 VSS 1.16365e-17
RmwI145 MX32/M0#s 19 0.001000 $W=1000000
RmwI146 MM1#s 19 0.001000 $W=1000000
*
*|NET A 4.88798e-16
*|P (A X 0 0.9350 2.2300)
*|I (MX23/M0#g MX23/M0 g X 0 0.9050 0.7450)
*|I (MM0#g MM0 g X 0 0.9050 3.2800)
*|S (A#8 0.9050 2.0950)
*|S (A#9 0.9050 1.9300)
*|S (A#10 0.9200 2.0950)
*|S (A#11 0.9050 2.0950)
*|S (A#12 0.9200 2.0950)
CA1 MM0#g VSS 3.96437e-18
CA2 MX23/M0#g VSS 1.82734e-17
CA3 A#12 VSS 3.45963e-18
CA4 A#11 VSS 6.80007e-18
CA5 A VSS 1.5781e-18
CA6 A 2#12 2.45987e-18
CA7 A#12 2#25 9.08774e-18
CA8 A 2#19 2.17583e-17
CA9 MM0#g 2#12 2.99365e-18
CA10 MX23/M0#g MX23/M0#d 6.22779e-18
CA11 A#11 2#17 5.08646e-18
CA12 MM0#g MX20/M0#d 4.7267e-18
CA13 MM0#g 1#12 1.69037e-18
CA14 MX23/M0#g MX21/M0#d 1.31473e-18
CA15 A#12 1#16 1.35619e-17
CA16 A 1#21 1.82889e-17
CA17 A#11 1#16 1.11239e-17
CA18 A 1#18 2.50036e-17
CA19 A#12 1#17 1.34794e-17
CA20 A#11 1#21 6.96902e-18
CA21 A#11 1#17 1.1054e-17
CA22 A#12 1#21 3.15685e-17
CA23 MX23/M0#g MX23/M0#s 6.21439e-18
CA24 A#12 VSS#17 6.01389e-18
CA25 MX23/M0#g VSS#9 4.06624e-18
CA26 MX23/M0#g VSS#17 3.5418e-18
CA27 MM0#g VDD#6 3.78199e-18
CA28 A VDD#12 8.21993e-18
CA29 MM0#g MX19/M0#s 7.70836e-18
CA30 MM0#g VDD#12 3.6304e-18
CA31 A#11 VDD 8.12386e-18
CA32 MM0#g VDD 1.578e-17
CA33 A VDD 8.88309e-18
CA34 A B#25 1.41667e-17
CA35 A#11 B#24 9.42915e-18
CA36 MX23/M0#g B#27 6.09186e-18
CA37 A B#24 1.39323e-17
CA38 A#12 B#27 6.16404e-18
CA39 A#12 B 5.25644e-17
CA40 MM0#g B#24 2.71527e-18
CA41 A B 7.18128e-17
CA42 A#11 B#25 9.24857e-18
CA43 A#11 B 6.23872e-18
RgA1 MM0#g A#8 361.939087 $L=1.185 $W=0.15
RgA2 A#8 A#9 34.134449 $L=0.1645 $W=0.27
RgA3 A#9 MX23/M0#g 380.824615 $L=1.185 $W=0.15
RfA4 A#10 A#11 1.129412 $L=0.015 $W=0.17
ReA5 A A#12 0.064904 $L=0.135 $W=0.26
RjA6 A#10 A#12 152.000000 $A=0.0289
RiA7 A#8 A#11 15.000000 $A=0.0289
*
*|NET 1 9.14023e-16
*|I (MX22/M0#g MX22/M0 g X 0 1.3350 0.7450)
*|I (MX21/M0#d MX21/M0 d X 0 0.3995 0.7450)
*|I (MX32/M0#g MX32/M0 g X 0 1.7650 3.2800)
*|I (MX19/M0#d MX19/M0 d X 0 0.3995 3.2800)
*|S (1 1.7650 3.2800)
*|S (1#8 1.7650 1.8400)
*|S (1#9 1.4650 1.8400)
*|S (1#11 0.2600 3.2800)
*|S (1#12 0.2600 3.2350)
*|S (1#13 0.2600 0.7450)
*|S (1#16 1.4650 1.8400)
*|S (1#17 0.3200 1.6400)
*|S (1#18 0.2600 3.2350)
*|S (1#19 0.2600 3.0900)
*|S (1#20 0.3200 1.7845)
*|S (1#21 0.3200 1.6400)
*|S (1#22 0.3200 1.4950)
*|S (1#23 0.2600 0.8895)
*|S (1#24 0.2600 0.7450)
CF1 MX21/M0#d VSS 6.55554e-18
CF2 MX22/M0#g VSS 1.73546e-17
CF3 1#24 VSS 4.28133e-17
CF4 1#22 VSS 1.52596e-17
CF5 1#21 VSS 2.42157e-17
CF6 1#18 VSS 1.32043e-18
CF7 1#16 VSS 2.74652e-17
CF8 1#12 VSS 2.65565e-18
CF9 1#17 VSS 2.51353e-17
CF10 1 VSS 1.15121e-17
CF11 MX22/M0#g MX25/M0#d 3.76262e-18
CF12 MX22/M0#g 12#29 2.45898e-18
CF13 1 12#32 1.72895e-18
CF14 1#16 12#34 1.68187e-18
CF15 1#16 12#31 4.9092e-18
CF16 1#24 12#36 5.90856e-18
CF17 1#18 12#32 4.82331e-18
CF18 1 MX32/M0#d 6.79664e-18
CF19 1#16 2#25 3.57837e-18
CF20 1 2#20 3.48075e-18
CF21 1 2#17 2.37169e-18
CF22 1#24 MX23/M0#d 2.35559e-18
CF23 1#18 2#12 1.96666e-18
CF24 MX21/M0#d 2#25 1.51961e-18
CF25 1#16 2#19 1.28952e-18
CF26 1#12 2#19 1.24784e-18
CF27 1#16 2#20 1.24579e-18
CF28 1#18 MX20/M0#d 1.04751e-18
CF29 1#16 2#23 9.23026e-19
CF30 1#16 2#21 1.12842e-17
CF31 MX22/M0#g MX23/M0#d 6.21523e-18
CF32 1#24 2#25 1.25407e-17
CF33 1#16 2#17 9.31318e-18
CF34 1#18 2#19 1.11162e-17
CF35 1#24 VSS#10 3.33922e-18
CF36 1#17 VSS#17 2.41875e-18
CF37 1#24 VSS#9 2.02185e-18
CF38 MX22/M0#g VSS#17 1.92034e-18
CF39 MX21/M0#d VSS#9 1.61256e-18
CF40 1#22 VSS#17 1.49586e-18
CF41 MX21/M0#d VSS#10 5.37852e-18
CF42 1#24 MX23/M0#s 7.37763e-18
CF43 MX21/M0#d VSS#17 4.94189e-18
CF44 MX22/M0#g VSS#9 5.44586e-18
CF45 MX21/M0#d MX23/M0#s 1.94916e-17
CF46 1#24 VSS#17 2.41774e-17
RgF75 1 1#8 425.788727 $L=1.44 $W=0.15
RgF76 1#8 1#9 48.952377 $L=0.3 $W=0.33
RgF77 1#9 MX22/M0#g 351.860016 $L=1.095 $W=0.15
RfF78 1#11 1#12 3.388236 $L=0.045 $W=0.17
RfF79 1#16 1#17 95.622314 $L=1.345 $W=0.17
ReF80 1#18 1#19 0.078668 $L=0.1445 $W=0.23
ReF81 1#19 1#20 0.959831 $L=1.305 $W=0.17
ReF82 1#20 1#21 0.087429 $L=0.1445 $W=0.23
ReF83 1#21 1#22 0.078668 $L=0.1445 $W=0.23
ReF84 1#22 1#23 0.445125 $L=0.605 $W=0.17
ReF85 1#23 1#24 0.087429 $L=0.1445 $W=0.23
RhF86 MX21/M0#d 1#13 15.000000 $A=0.0289
Rh_2_F87 MX19/M0#d 1#11 15.000000 $A=0.0289
RjF88 1#12 1#18 152.000000 $A=0.0289
RjF89 1#17 1#21 152.000000 $A=0.0289
RjF90 1#13 1#24 152.000000 $A=0.0289
RiF91 1#9 1#16 15.000000 $A=0.0289
RmwF92 MX32/M0#g 1 0.001000 $W=1000000
*
*|NET 12 1.87768e-15
*|I (MX26/M0#g MX26/M0 g X 0 2.6850 0.9450)
*|I (MX26/M1#g MX26/M1 g X 0 3.1150 0.9450)
*|I (MX26/M2#g MX26/M2 g X 0 3.5450 0.9450)
*|I (MX26/M3#g MX26/M3 g X 0 3.9750 0.9450)
*|I (MX25/M0#d MX25/M0 d X 0 1.6895 0.7450)
*|I (MX22/M0#d MX22/M0 d X 0 1.4105 0.7450)
*|I (MX33/M0#g MX33/M0 g X 0 2.6850 3.2800)
*|I (MX32/M0#d MX32/M0 d X 0 1.6895 3.2800)
*|I (MX20/M0#s MX20/M0 s X 0 1.4105 3.2800)
*|S (12 2.6850 3.2800)
*|S (12#17 4.0025 1.6300)
*|S (12#18 3.5450 1.6300)
*|S (12#19 3.3275 1.6300)
*|S (12#20 3.1150 1.6300)
*|S (12#21 2.6550 1.6300)
*|S (12#22 2.6550 1.4650)
*|S (12#23 2.6550 1.7945)
*|S (12#24 1.5500 3.4050)
*|S (12#26 1.5500 3.2800)
*|S (12#28 1.5500 0.7450)
*|S (12#29 1.5500 0.5650)
*|S (12#30 3.3275 1.6300)
*|S (12#31 2.3600 1.6300)
*|S (12#32 1.5500 3.4050)
*|S (12#33 2.3600 3.4050)
*|S (12#34 2.3600 1.6300)
*|S (12#35 2.3600 0.6200)
*|S (12#36 1.6945 0.5925)
*|S (12#37 1.5500 0.5650)
CH1 MX32/M0#d VSS 5.50302e-18
CH2 MX25/M0#d VSS 3.02178e-18
CH3 MX26/M3#g VSS 1.31986e-17
CH4 MX26/M2#g VSS 1.4811e-17
CH5 MX26/M1#g VSS 1.17129e-17
CH6 MX26/M0#g VSS 1.31948e-17
CH7 12#36 VSS 5.34951e-18
CH8 12#35 VSS 4.92884e-18
CH9 12#34 VSS 7.60097e-18
CH10 12#32 VSS 1.82823e-18
CH11 12#33 VSS 4.24305e-18
CH12 12#30 VSS 6.29087e-17
CH13 12#29 VSS 7.46462e-18
CH14 12#31 VSS 1.29987e-17
CH15 12#33 17 5.86566e-19
CH16 MX26/M0#g 17 1.3779e-18
CH17 12#29 17 5.81556e-18
CH18 12#32 19 6.66792e-18
CH19 12#36 17 5.8685e-18
CH20 12#33 19 2.15689e-17
CH21 12#35 17 1.55025e-17
CH22 MX25/M0#d 17 1.34392e-17
CH23 MX32/M0#d 19 2.51974e-17
CH24 12 19 1.90147e-18
CH25 MX26/M3#g VSS#17 6.34846e-18
CH26 12#35 VSS#5 5.96739e-18
CH27 12#36 VSS#5 5.84753e-18
CH28 12#30 VSS#17 5.39603e-18
CH29 MX26/M2#g VSS#4 4.84096e-18
CH30 MX26/M1#g VSS#4 4.84096e-18
CH31 MX26/M3#g VSS#3 4.84096e-18
CH32 MX26/M0#g VSS#5 4.84096e-18
CH33 12#29 VSS#17 4.05394e-18
CH34 12#36 MX23/M0#s 3.84e-18
CH35 MX26/M0#g VSS#17 3.71264e-18
CH36 12#29 VSS#9 3.67948e-18
CH37 MX26/M2#g VSS#17 3.43682e-18
CH38 MX26/M1#g VSS#17 2.56616e-18
CH39 MX26/M3#g MX26/M1#d 2.39193e-18
CH40 MX26/M2#g MX26/M3#d 2.34057e-18
CH41 12#36 VSS#9 2.11001e-18
CH42 MX26/M0#g MX26/M1#d 2.09176e-18
CH43 MX26/M1#g MX26/M0#s 2.07319e-18
CH44 12#30 MX26/M1#d 2.15649e-17
CH45 12#34 MX26/M0#s 1.10246e-17
CH46 12#30 MX26/M3#d 2.00748e-17
CH47 12#35 MX26/M0#s 2.55535e-17
CH48 12#36 VSS#17 4.73481e-17
CH49 12#35 VSS#17 3.78857e-17
CH50 MX26/M1#g MX26/M1#d 1.12769e-17
CH51 MX26/M2#g MX26/M1#d 1.12769e-17
CH52 MX26/M3#g MX26/M3#d 1.48275e-17
CH53 12#29 VSS#5 7.6901e-18
CH54 MX26/M0#g MX26/M0#s 1.2842e-17
CH55 12#30 MX26/M0#s 9.23854e-18
CH56 12#31 MX26/M0#s 1.10226e-17
RgH115 MX26/M3#g 12#17 185.097488 $L=0.685 $W=0.15
RgH116 12#17 12#18 65.755386 $L=0.4575 $W=0.33
RgH117 12#18 12#19 31.227943 $L=0.2175 $W=0.33
RgH118 12#19 12#20 30.497641 $L=0.2125 $W=0.33
RgH119 12#20 12#21 51.384308 $L=0.44 $W=0.33
RgH120 12#21 12#22 42.500233 $L=0.1645 $W=0.21
RgH121 12#22 MX26/M0#g 167.150711 $L=0.52 $W=0.15
RgH122 12#18 MX26/M2#g 183.905472 $L=0.685 $W=0.15
RgH123 12#20 MX26/M1#g 183.905472 $L=0.685 $W=0.15
RgH124 12#21 12#23 42.509769 $L=0.1645 $W=0.21
RgH125 12#23 12 477.237396 $L=1.485 $W=0.15
RfH126 12#24 12#26 9.411764 $L=0.125 $W=0.17
RfH127 12#28 12#29 13.552941 $L=0.18 $W=0.17
RfH128 12#30 12#31 72.847061 $L=0.9675 $W=0.17
ReH129 12#32 12#33 0.536948 $L=0.81 $W=0.17
ReH130 12#33 12#34 0.849448 $L=1.775 $W=0.26
ReH131 12#34 12#35 0.481659 $L=1.01 $W=0.26
ReH132 12#35 12#36 0.430469 $L=0.665 $W=0.17
ReH133 12#36 12#37 0.088179 $L=0.1445 $W=0.225
RhH134 MX25/M0#d 12#28 15.000000 $A=0.0289
Rh_2_H135 MX32/M0#d 12#26 15.000000 $A=0.0289
RjH136 12#24 12#32 152.000000 $A=0.0289
RjH137 12#31 12#34 152.000000 $A=0.0289
RjH138 12#29 12#37 152.000000 $A=0.0289
RiH139 12#19 12#30 3.750000 $A=0.1156
RmwH140 MX22/M0#d MX25/M0#d 0.001000 $W=1000000
RmwH141 MX33/M0#g 12 0.001000 $W=1000000
RmwH142 MX20/M0#s MX32/M0#d 0.001000 $W=1000000
*
*Instance Section
*
MX26/M0	MX26/M0#d	MX26/M0#g	MX26/M0#s	VSS	nfet_01v8
+ L=1.5e-07	W=8.2e-07
MX26/M1	MX26/M1#d	MX26/M1#g	MX26/M1#s	VSS	nfet_01v8
+ L=1.5e-07	W=8.2e-07
MX26/M2	MX26/M2#d	MX26/M2#g	MX26/M2#s	VSS	nfet_01v8
+ L=1.5e-07	W=8.2e-07
MX26/M3	MX26/M3#d	MX26/M3#g	MX26/M3#s	VSS	nfet_01v8
+ L=1.5e-07	W=8.2e-07
MX25/M0	MX25/M0#d	MX25/M0#g	MX25/M0#s	VSS	nfet_01v8
+ L=1.5e-07	W=4.2e-07
MX24/M0	MX24/M0#d	MX24/M0#g	MX24/M0#s	VSS	nfet_01v8
+ L=1.5e-07	W=4.2e-07
MX23/M0	MX23/M0#d	MX23/M0#g	MX23/M0#s	VSS	nfet_01v8
+ L=1.5e-07	W=4.2e-07
MX22/M0	MX22/M0#d	MX22/M0#g	MX22/M0#s	VSS	nfet_01v8
+ L=1.5e-07	W=4.2e-07
MX21/M0	MX21/M0#d	MX21/M0#g	MX21/M0#s	VSS	nfet_01v8
+ L=1.5e-07	W=4.2e-07
MX33/M0	MX33/M0#d	MX33/M0#g	MX33/M0#s	VDD	pfet_01v8_hvt
+ L=1.5e-07	W=5.4e-07
MX32/M0	MX32/M0#d	MX32/M0#g	MX32/M0#s	VDD	pfet_01v8_hvt
+ L=1.5e-07	W=5.4e-07
MX20/M0	MX20/M0#d	MX20/M0#g	MX20/M0#s	VDD	pfet_01v8_hvt
+ L=1.5e-07	W=5.4e-07
MX19/M0	MX19/M0#d	MX19/M0#g	MX19/M0#s	VDD	pfet_01v8_hvt
+ L=1.5e-07	W=5.4e-07
MM0	MM0#d	MM0#g	MM0#s	VDD	pfet_01v8_hvt	L=1.5e-07
+ W=5.4e-07
MM1	MM1#d	MM1#g	MM1#s	VDD	pfet_01v8_hvt	L=1.5e-07
+ W=5.4e-07
.ENDS
