*
*|DSPF 1.5
*
*|DATE "Fri Feb 28 13:36:43 2025"
*|VENDOR "Cadence Design Systems"
*|PROGRAM "Cadence Quantus Extraction"
*|VERSION "22.1.0-p089 Linux 64 bit - (Thu Jan 19 11:47:08 PST 2023)"
*|DESIGN "DFFRX4_LP"
*|DIVIDER /
*|DELIMITER #
*|DeviceFingerDelim "@"
*|BUSBIT []
*|GLOBAL_TEMPERATURE 25
*|OPERATING_TEMPERATURE 25
** QRC_TECH_DIR /vols/wfo_devel/projects/reference_SKY130/tech/sky130_release_0.0.4/quantus/extraction/typical 
** HIERARCHICAL_SPLIT_PINS_DELIMITER '%'
** caps2d version: 10
*
.SUBCKT  DFFRX4_LP CK D Q QN RN VDD VSS
*
*Net Section
*
*|GROUND_NET VSS
*
*|NET VSS 3.92011e-15
*|P (VSS X 0 4.8250 0.0050)
*|I (MX100/M0#s MX100/M0 s X 0 8.8395 0.8000)
*|I (MX100/M1#d MX100/M1 d X 0 9.4205 0.8000)
*|I (MX100/M2#s MX100/M2 s X 0 9.6995 0.8000)
*|I (MX100/M3#d MX100/M3 d X 0 10.2805 0.8000)
*|I (MX95/M0#s MX95/M0 s X 0 10.5595 0.8000)
*|I (MX95/M1#d MX95/M1 d X 0 11.1405 0.8000)
*|I (MX95/M2#s MX95/M2 s X 0 11.4195 0.8000)
*|I (MX95/M3#d MX95/M3 d X 0 12.0005 0.8000)
*|I (MX94/M0#d MX94/M0 d X 0 6.5995 0.8000)
*|I (MX94/M1#s MX94/M1 s X 0 6.3205 0.8000)
*|I (MX82/M0#s MX82/M0 s X 0 2.7005 0.8000)
*|I (MX74/M0#s MX74/M0 s X 0 3.6505 0.8000)
*|I (MX73/M0#s MX73/M0 s X 0 0.5505 0.8000)
*|I (MX72/M0#s MX72/M0 s X 0 5.3705 0.8000)
*|I (MX71/M0#s MX71/M0 s X 0 8.5605 0.8000)
*|I (MX70/M0#s MX70/M0 s X 0 3.9295 0.8000)
*|I (MX69/M0#s MX69/M0 s X 0 0.8295 0.8000)
*|S (VSS#2 12.1400 0.8000)
*|S (VSS#3 12.2400 0.0000)
*|S (VSS#4 11.2800 0.0000)
*|S (VSS#5 10.4200 0.0000)
*|S (VSS#6 9.6600 0.0000)
*|S (VSS#7 9.6600 0.0000)
*|S (VSS#10 11.2800 0.8000)
*|S (VSS#12 10.4200 0.8000)
*|S (VSS#13 8.7000 0.0000)
*|S (VSS#14 6.4600 0.0000)
*|S (VSS#15 5.5100 0.0000)
*|S (VSS#16 3.6800 0.0000)
*|S (VSS#18 2.8400 0.0000)
*|S (VSS#19 0.6900 0.0000)
*|S (VSS#20 0.0000 0.0000)
*|S (VSS#22 9.5600 0.8000)
*|S (VSS#24 8.7000 0.8000)
*|S (VSS#26 6.4600 0.8000)
*|S (VSS#28 5.5100 0.8000)
*|S (VSS#30 3.7900 0.8000)
*|S (VSS#32 2.8400 0.8000)
*|S (VSS#34 0.6900 0.8000)
*|S (VSS#35 9.6600 0.0000)
*|S (VSS#36 3.6800 0.0000)
RfG136 VSS#2 VSS#3 58.352238 $L=0.8 $W=0.17
RfG137 VSS#3 VSS#4 43.157707 $L=0.96 $W=0.25
RfG138 VSS#4 VSS#5 43.481621 $L=0.86 $W=0.25
RfG139 VSS#5 VSS#6 38.636810 $L=0.76 $W=0.25
RfG140 VSS#4 VSS#10 53.627445 $L=0.8 $W=0.17
RfG141 VSS#5 VSS#12 53.627445 $L=0.8 $W=0.17
RfG142 VSS#6 VSS#13 48.876812 $L=0.96 $W=0.25
RfG143 VSS#13 VSS#14 114.137619 $L=2.24 $W=0.25
RfG144 VSS#14 VSS#15 48.089619 $L=0.95 $W=0.25
RfG145 VSS#15 VSS#16 93.420807 $L=1.83 $W=0.25
RfG146 VSS#16 VSS#18 42.732811 $L=0.84 $W=0.25
RfG147 VSS#18 VSS#19 109.529625 $L=2.15 $W=0.25
RfG148 VSS#19 VSS#20 35.052811 $L=0.69 $W=0.25
RfG149 VSS#6 VSS#22 57.223530 $L=0.8 $W=0.17
RfG150 VSS#13 VSS#24 53.627445 $L=0.8 $W=0.17
RfG151 VSS#14 VSS#26 53.627445 $L=0.8 $W=0.17
RfG152 VSS#15 VSS#28 53.627445 $L=0.8 $W=0.17
RfG153 VSS#16 VSS#30 57.223530 $L=0.8 $W=0.17
RfG154 VSS#18 VSS#32 53.627445 $L=0.8 $W=0.17
RfG155 VSS#19 VSS#34 53.627445 $L=0.8 $W=0.17
ReG156 VSS#35 VSS 1.510938 $L=4.835 $W=0.4
ReG157 VSS VSS#36 0.357812 $L=1.145 $W=0.4
RhG158 MX95/M3#d VSS#2 15.000000 $A=0.0289
RhG159 MX95/M1#d VSS#10 15.000000 $A=0.0289
RhG160 MX100/M3#d VSS#12 15.000000 $A=0.0289
RhG161 MX100/M1#d VSS#22 15.000000 $A=0.0289
RhG162 MX100/M0#s VSS#24 15.000000 $A=0.0289
RhG163 MX94/M0#d VSS#26 15.000000 $A=0.0289
RhG164 MX72/M0#s VSS#28 15.000000 $A=0.0289
RhG165 MX74/M0#s VSS#30 15.000000 $A=0.0289
RhG166 MX82/M0#s VSS#32 15.000000 $A=0.0289
RhG167 MX73/M0#s VSS#34 15.000000 $A=0.0289
Rh_3_G168 VSS#7 VSS#6 1.363636 $A=0.3179
Rh_3_G169 VSS#7 VSS#16 1.000000 $A=0.4335
RjG170 VSS#6 VSS#35 13.818182 $A=0.3179
RjG171 VSS#16 VSS#36 10.133333 $A=0.4335
RmwG172 MX100/M2#s MX100/M1#d 0.001000 $W=1000000
RmwG173 MX95/M0#s MX100/M3#d 0.001000 $W=1000000
RmwG174 MX95/M2#s MX95/M1#d 0.001000 $W=1000000
RmwG175 MX94/M1#s MX94/M0#d 0.001000 $W=1000000
RmwG176 MX71/M0#s MX100/M0#s 0.001000 $W=1000000
RmwG177 MX70/M0#s MX74/M0#s 0.001000 $W=1000000
RmwG178 MX69/M0#s MX73/M0#s 0.001000 $W=1000000
*
*|NET Q 1.19398e-15
*|P (Q X 0 10.1350 2.1400)
*|I (MX100/M0#d MX100/M0 d X 0 8.9905 0.8000)
*|I (MX100/M1#s MX100/M1 s X 0 9.2695 0.8000)
*|I (MX100/M2#d MX100/M2 d X 0 9.8505 0.8000)
*|I (MX100/M3#s MX100/M3 s X 0 10.1295 0.8000)
*|I (MX97/M0#d MX97/M0 d X 0 8.9905 3.2400)
*|I (MX97/M1#s MX97/M1 s X 0 9.2695 3.2400)
*|I (MX97/M2#d MX97/M2 d X 0 9.8505 3.2400)
*|I (MX97/M3#s MX97/M3 s X 0 10.1295 3.2400)
*|S (Q#1 9.1300 3.3050)
*|S (Q#3 9.1300 3.2400)
*|S (Q#4 9.1300 1.0050)
*|S (Q#6 9.1300 0.8000)
*|S (Q#7 9.9900 3.3050)
*|S (Q#9 9.9900 3.2400)
*|S (Q#10 9.9900 1.0050)
*|S (Q#12 9.9900 0.8000)
*|S (Q#13 9.9900 3.3050)
*|S (Q#14 10.0625 3.1600)
*|S (Q#15 10.1200 1.8850)
*|S (Q#16 9.1300 1.8850)
*|S (Q#17 9.1300 1.0050)
*|S (Q#18 10.0625 1.3295)
*|S (Q#19 9.9900 1.0050)
*|S (Q#20 9.1300 3.3050)
CC1 MX97/M2#d VSS 3.8656e-18
CC2 MX97/M0#d VSS 2.93133e-18
CC3 MX100/M2#d VSS 1.15744e-17
CC4 MX100/M0#d VSS 1.2039e-17
CC5 Q#20 VSS 9.77464e-19
CC6 Q#19 VSS 1.35826e-17
CC7 Q#17 VSS 1.15739e-17
CC8 Q#16 VSS 7.27081e-18
CC9 Q#13 VSS 5.013e-18
CC10 Q VSS 1.30348e-17
CC11 MX100/M0#d MX71/M0#d 5.41839e-18
CC12 Q#17 MX71/M0#d 4.23113e-18
CC13 MX100/M0#d 9#44 3.70921e-18
CC14 MX97/M0#d 9#42 1.95191e-18
CC15 Q#20 MX66/M0#d 1.95191e-18
CC16 Q#19 9#40 1.39673e-17
CC17 Q#16 9#43 3.42174e-17
CC18 MX100/M2#d 9#40 2.18799e-17
CC19 Q#17 9#44 2.88796e-17
CC20 Q#16 9#42 6.03095e-18
CC21 Q#16 9#41 4.2085e-17
CC22 Q 9#40 3.39673e-17
CC23 Q#20 9#42 3.44329e-17
CC24 Q#17 9#43 6.07901e-18
CC25 MX100/M0#d 9#41 2.11231e-17
CC26 Q MX97/M2#g 4.55861e-18
CC27 MX97/M2#d 8#60 3.87702e-18
CC28 Q#16 MX97/M1#g 3.6165e-18
CC29 Q MX100/M2#g 3.51581e-18
CC30 MX97/M0#d 8#60 2.96863e-18
CC31 Q#16 MX100/M1#g 2.78921e-18
CC32 Q#20 MX97/M0#g 2.14874e-18
CC33 Q#20 MX97/M1#g 1.99355e-18
CC34 MX97/M0#d MX66/M0#g 1.76774e-18
CC35 MX97/M2#d MX97/M1#g 1.65018e-18
CC36 MX97/M0#d MX97/M2#g 1.65018e-18
CC37 Q#13 MX97/M3#g 1.56569e-18
CC38 Q#19 MX100/M2#g 1.55431e-18
CC39 Q#17 MX100/M1#g 1.53482e-18
CC40 Q#17 MX100/M0#g 1.53482e-18
CC41 MX100/M0#d MX71/M0#g 1.41134e-18
CC42 Q#13 MX97/M2#g 1.40706e-18
CC43 MX100/M2#d MX100/M1#g 1.31748e-18
CC44 MX97/M0#d MX97/M0#g 7.8127e-18
CC45 MX100/M2#d MX100/M2#g 6.23699e-18
CC46 MX100/M2#d MX100/M3#g 6.23699e-18
CC47 MX100/M0#d MX100/M0#g 6.23699e-18
CC48 MX97/M2#d MX97/M3#g 7.8127e-18
CC49 Q#16 8#60 4.3595e-17
CC50 MX100/M0#d MX100/M1#g 6.23699e-18
CC51 Q 8#60 3.49294e-17
CC52 MX97/M0#d MX97/M1#g 7.8127e-18
CC53 MX97/M2#d MX97/M2#g 7.79987e-18
CC54 MX100/M2#d VSS#35 5.56735e-18
CC55 MX100/M0#d VSS#35 5.56735e-18
CC56 MX100/M2#d VSS#7 4.20806e-18
CC57 Q#19 VSS#5 4.09383e-18
CC58 Q#19 VSS#7 3.64161e-18
CC59 Q#16 MX100/M1#d 2.79965e-18
CC60 Q#17 VSS#13 2.77186e-18
CC61 Q#17 VSS#7 2.75978e-18
CC62 MX100/M0#d VSS#13 2.42318e-18
CC63 MX100/M0#d VSS#7 2.39954e-18
CC64 Q#19 MX100/M3#d 1.04319e-17
CC65 Q#19 MX100/M1#d 7.0944e-18
CC66 Q#19 VSS#35 3.01026e-17
CC67 Q#17 MX100/M0#s 7.01295e-18
CC68 MX100/M2#d MX100/M3#d 2.03427e-17
CC69 MX100/M0#d MX100/M1#d 2.03767e-17
CC70 MX100/M2#d MX100/M1#d 2.05429e-17
CC71 MX100/M0#d MX100/M0#s 2.05429e-17
CC72 Q#17 MX100/M1#d 7.01295e-18
CC73 Q#17 VSS#35 2.15763e-17
CC74 MX97/M2#d VDD#41 5.83005e-18
CC75 MX97/M0#d VDD#41 5.83005e-18
CC76 Q#16 MX97/M1#d 5.23585e-18
CC77 MX97/M2#d VDD#7 4.18843e-18
CC78 Q#13 VDD#5 4.05493e-18
CC79 Q#13 VDD#7 3.53822e-18
CC80 Q MX97/M1#d 3.20037e-18
CC81 Q#20 VDD#15 2.73997e-18
CC82 Q#20 VDD#7 2.72809e-18
CC83 MX97/M0#d VDD#15 2.41187e-18
CC84 Q#20 VDD#41 2.11473e-17
CC85 MX97/M0#d MX97/M0#s 3.12998e-17
CC86 Q#13 MX97/M1#d 9.73371e-18
CC87 Q#20 VDD 1.07664e-17
CC88 Q#16 VDD 1.53012e-17
CC89 Q#13 MX101/M0#s 1.54646e-17
CC90 Q#13 VDD#41 2.90708e-17
CC91 Q#13 VDD 8.24686e-18
CC92 MX97/M0#d MX97/M1#d 3.15713e-17
CC93 Q#20 MX97/M0#s 1.07669e-17
CC94 MX97/M2#d MX101/M0#s 3.12312e-17
CC95 Q#20 MX97/M1#d 1.00541e-17
CC96 Q VDD 1.89541e-17
CC97 MX97/M2#d MX97/M1#d 3.02841e-17
CC98 MX100/M2#d MX95/M0#d 5.25177e-18
CC99 MX100/M2#d QN#17 3.96179e-18
CC100 Q QN#20 3.25357e-18
CC101 Q#19 MX95/M0#d 6.12022e-18
CC102 Q#13 QN#20 4.0483e-17
CC103 Q#19 QN#17 4.42988e-17
CC104 Q QN#16 5.83365e-17
RfC16 Q#1 Q#3 4.894118 $L=0.065 $W=0.17
RfC17 Q#4 Q#6 15.435293 $L=0.205 $W=0.17
RfC18 Q#7 Q#9 4.894118 $L=0.065 $W=0.17
RfC19 Q#10 Q#12 15.435293 $L=0.205 $W=0.17
ReC20 Q#13 Q#14 0.057434 $L=0.1445 $W=0.375
ReC21 Q#14 Q 0.490468 $L=1.02 $W=0.26
ReC22 Q Q#15 0.118591 $L=0.255 $W=0.26
ReC23 Q#15 Q#16 0.432798 $L=0.99 $W=0.23
ReC24 Q#16 Q#17 0.473476 $L=0.88 $W=0.23
ReC25 Q#15 Q#18 0.262905 $L=0.555 $W=0.26
ReC26 Q#18 Q#19 0.120126 $L=0.3245 $W=0.375
ReC27 Q#16 Q#20 0.766954 $L=1.42 $W=0.23
RhC28 MX100/M0#d Q#6 15.000000 $A=0.0289
RhC29 MX100/M2#d Q#12 15.000000 $A=0.0289
Rh_2_C30 MX97/M0#d Q#3 15.000000 $A=0.0289
Rh_2_C31 MX97/M2#d Q#9 15.000000 $A=0.0289
RjC32 Q#7 Q#13 152.000000 $A=0.0289
RjC33 Q#4 Q#17 76.000000 $A=0.0578
RjC34 Q#10 Q#19 76.000000 $A=0.0578
RjC35 Q#1 Q#20 152.000000 $A=0.0289
RmwC36 MX100/M1#s MX100/M0#d 0.001000 $W=1000000
RmwC37 MX100/M3#s MX100/M2#d 0.001000 $W=1000000
RmwC38 MX97/M1#s MX97/M0#d 0.001000 $W=1000000
RmwC39 MX97/M3#s MX97/M2#d 0.001000 $W=1000000
*
*|NET 7 7.09949e-16
*|I (MX99/M0#s MX99/M0 s X 0 7.0295 0.8000)
*|I (MX99/M1#d MX99/M1 d X 0 7.6105 0.8000)
*|I (MX94/M0#s MX94/M0 s X 0 6.7505 0.8000)
*|I (MX94/M1#d MX94/M1 d X 0 6.1695 0.8000)
*|S (7 6.0300 0.8000)
*|S (7#2 6.0300 0.8000)
*|S (7#3 6.0300 0.7550)
*|S (7#5 6.8900 0.8000)
*|S (7#6 6.8900 0.7550)
*|S (7#8 7.7500 0.8000)
*|S (7#9 7.7500 0.7550)
*|S (7#10 7.7500 0.7550)
*|S (7#11 6.8900 0.5450)
*|S (7#12 6.0300 0.7550)
*|S (7#13 6.8900 0.7550)
CM1 7#12 VSS 1.84563e-17
CM2 7#11 VSS 6.04108e-18
CM3 7#10 VSS 2.18414e-17
CM4 7#3 VSS 3.19752e-18
CM5 7#6 VSS 1.95707e-18
CM6 7#9 VSS 1.07257e-18
CM7 7 VSS 3.44892e-20
CM8 7#10 MX71/M0#d 5.45738e-18
CM9 7#9 9#44 5.04227e-18
CM10 7#10 9#44 2.17132e-17
CM11 7#9 MX71/M0#d 1.58793e-17
CM12 7#9 8#68 3.49197e-18
CM13 7#6 8#68 3.46324e-18
CM14 7#11 8#61 3.21412e-18
CM15 7#3 MX72/M0#g 1.64318e-18
CM16 7#12 8#62 1.52168e-18
CM17 7#9 MX71/M0#g 1.50387e-18
CM18 7#3 8#68 6.77735e-19
CM19 7#6 8#66 6.16231e-19
CM20 7#9 8#61 7.34751e-18
CM21 7#10 MX99/M0#d 1.13421e-17
CM22 7#10 8#68 2.16957e-17
CM23 7#11 8#68 2.17892e-17
CM24 7#10 8#61 7.30218e-18
CM25 7#6 8#57 4.70979e-18
CM26 7#9 8#57 6.97827e-18
CM27 7#9 MX99/M0#d 1.40858e-17
CM28 7#11 MX99/M0#d 1.11588e-17
CM29 7#6 MX99/M0#d 1.40858e-17
CM30 7#3 VSS#14 3.41469e-18
CM31 7#12 MX74/M0#s 2.60924e-18
CM32 7#12 VSS#15 2.47539e-18
CM33 7#11 VSS#14 1.1648e-17
CM34 7#9 VSS#13 7.22563e-18
CM35 7#3 MX72/M0#s 1.39431e-17
CM36 7#6 VSS#14 6.00193e-18
CM37 7#10 VSS#35 6.32924e-17
CM38 7#11 VSS#35 2.12882e-17
CM39 7#10 VSS#14 4.10692e-18
CM40 7#6 VSS#36 3.87117e-18
CM41 7#3 VSS#36 3.85869e-18
CM42 7#12 MX72/M0#s 1.29225e-17
CM43 7#11 MX94/M0#d 2.19203e-17
CM44 7#6 MX94/M0#d 1.86489e-17
CM45 7#11 VSS#36 6.32133e-17
CM46 7#12 VSS#36 5.97025e-17
CM47 7#12 MX94/M0#d 2.08891e-17
CM48 7#3 MX94/M0#d 1.97363e-17
CM49 7#9 VSS#35 3.99301e-18
CM50 7#10 MX100/M0#s 7.0434e-18
CM51 7#12 VSS#14 5.54337e-18
CM52 7#10 VSS#13 5.83752e-18
RfM304 7#2 7#3 3.388236 $L=0.045 $W=0.17
RfM305 7#5 7#6 3.388236 $L=0.045 $W=0.17
RfM306 7#8 7#9 3.388236 $L=0.045 $W=0.17
ReM307 7#10 7#11 0.521578 $L=1.07 $W=0.23
ReM308 7#11 7#12 0.521578 $L=1.07 $W=0.23
ReM309 7#11 7#13 0.062994 $L=0.21 $W=0.23
RhM310 7 7#2 15.000000 $A=0.0289
RhM311 MX99/M0#s 7#5 15.000000 $A=0.0289
RhM312 MX99/M1#d 7#8 15.000000 $A=0.0289
RjM313 7#9 7#10 152.000000 $A=0.0289
RjM314 7#3 7#12 152.000000 $A=0.0289
RjM315 7#6 7#13 152.000000 $A=0.0289
RmwM316 MX94/M0#s MX99/M0#s 0.001000 $W=1000000
RmwM317 MX94/M1#d 7 0.001000 $W=1000000
*
*|NET RN 1.33335e-15
*|P (RN X 0 5.9950 2.4450)
*|I (MX94/M0#g MX94/M0 g X 0 6.6750 0.8000)
*|I (MX94/M1#g MX94/M1 g X 0 6.2450 0.8000)
*|I (MX82/M0#g MX82/M0 g X 0 2.6250 0.8000)
*|I (MX98/M0#g MX98/M0 g X 0 6.2450 3.2800)
*|I (MX98/M1#g MX98/M1 g X 0 6.6750 3.2800)
*|I (MX64/M0#g MX64/M0 g X 0 2.6250 3.2800)
*|S (RN#22 2.6400 2.8295)
*|S (RN#23 2.6400 2.6800)
*|S (RN#24 2.7150 2.3100)
*|S (RN#25 2.7150 2.1450)
*|S (RN#26 2.6400 1.2595)
*|S (RN#27 2.6400 1.1100)
*|S (RN#28 6.6750 2.3100)
*|S (RN#29 6.4600 2.3100)
*|S (RN#30 6.2350 2.3100)
*|S (RN#31 6.2350 2.1450)
*|S (RN#32 6.6850 2.1450)
*|S (RN#33 6.2350 2.4745)
*|S (RN#34 6.4600 2.3100)
*|S (RN#35 5.9800 2.3100)
*|S (RN#36 2.7150 2.3100)
*|S (RN#37 5.9800 2.3100)
CE1 MX64/M0#g VSS 4.34938e-18
CE2 MX98/M1#g VSS 1.83695e-18
CE3 MX98/M0#g VSS 2.22009e-18
CE4 MX82/M0#g VSS 2.78879e-17
CE5 MX94/M1#g VSS 1.22624e-17
CE6 MX94/M0#g VSS 1.22724e-17
CE7 RN#37 VSS 1.02442e-17
CE8 RN#36 VSS 8.36147e-18
CE9 RN#34 VSS 4.07792e-18
CE10 RN#35 VSS 6.96153e-18
CE11 RN VSS 4.52883e-18
CE12 RN 8#63 6.25376e-18
CE13 RN#35 8 3.52335e-18
CE14 MX98/M1#g 8#66 3.45981e-18
CE15 MX98/M0#g 8#66 2.77767e-18
CE16 RN 8#51 2.2269e-18
CE17 MX98/M1#g 8#54 1.52572e-18
CE18 MX98/M1#g 8#51 7.75412e-18
CE19 RN#34 8#63 1.10914e-17
CE20 RN#34 8#62 1.75662e-17
CE21 RN#37 8#63 9.62894e-18
CE22 RN#35 8#62 7.96301e-17
CE23 RN#34 8#51 7.09337e-18
CE24 RN#34 8#66 1.09119e-17
CE25 RN 8#66 1.73221e-17
CE26 RN 8#65 1.07306e-17
CE27 MX98/M0#g 8#51 8.04982e-18
CE28 RN#34 8#61 4.57669e-17
CE29 RN#37 8#62 2.96418e-17
CE30 MX94/M1#g 7#12 3.33368e-18
CE31 MX94/M0#g 7#11 2.58864e-18
CE32 RN#37 7#3 1.77274e-18
CE33 RN#34 7#11 1.17669e-18
CE34 MX94/M0#g 7#6 5.29012e-18
CE35 MX94/M1#g 7#3 6.05409e-18
CE36 RN#37 7#12 1.02423e-17
CE37 MX94/M1#g 6#24 5.47485e-18
CE38 MX94/M0#g 6#24 5.47485e-18
CE39 RN#37 6#25 4.98447e-18
CE40 RN#37 6#24 4.91665e-18
CE41 RN#35 6#25 7.67444e-18
CE42 RN#35 6#27 2.16273e-17
CE43 RN 6#26 8.63081e-18
CE44 RN#36 5#19 2.65865e-17
CE45 RN#37 4#42 5.97032e-18
CE46 RN 4#31 5.76777e-18
CE47 MX82/M0#g 4#35 4.34145e-18
CE48 MX82/M0#g 4#36 2.54925e-18
CE49 MX64/M0#g 4#25 1.95375e-18
CE50 MX64/M0#g 3#6 7.78978e-18
CE51 RN#37 4#41 1.06579e-17
CE52 RN#36 4#29 8.57167e-17
CE53 RN#35 4#31 2.63068e-17
CE54 MX64/M0#g 4#29 6.79518e-18
CE55 RN#36 4#38 2.99738e-17
CE56 RN#36 3#8 3.53891e-18
CE57 RN#35 4#32 2.65499e-17
CE58 MX64/M0#g 3#8 3.2983e-18
CE59 RN#35 4#41 2.5921e-17
CE60 RN 4#41 1.90327e-17
CE61 RN#36 2#19 9.5141e-18
CE62 RN#36 2#18 1.08438e-17
CE63 RN#36 2#16 2.68492e-17
CE64 RN#36 2#17 2.33063e-17
CE65 RN#36 MX65/M0#g 7.30743e-18
CE66 RN#36 1#37 1.87869e-17
CE67 RN#35 1#37 4.24166e-17
CE68 RN#36 1#38 1.23305e-16
CE69 RN#35 MX68/M0#g 7.30743e-18
CE70 MX94/M1#g MX94/M0#d 6.54806e-18
CE71 MX94/M0#g MX94/M0#d 6.22248e-18
CE72 MX82/M0#g VSS#36 4.8201e-18
CE73 MX94/M1#g VSS#14 4.29097e-18
CE74 MX94/M0#g VSS#14 4.29097e-18
CE75 MX82/M0#g VSS#18 3.62458e-18
CE76 RN#37 VSS#15 2.55989e-18
CE77 MX94/M1#g VSS#36 2.29986e-18
CE78 MX82/M0#g MX82/M0#s 7.2112e-18
CE79 RN MX93/M0#s 5.99339e-18
CE80 MX98/M0#g VDD#24 5.77573e-18
CE81 MX98/M1#g VDD#21 5.77573e-18
CE82 MX98/M0#g VDD#42 5.21861e-18
CE83 MX64/M0#g VDD#34 3.77064e-18
CE84 RN#35 MX98/M0#s 3.11956e-18
CE85 MX98/M0#g MX93/M0#s 2.84423e-18
CE86 RN#37 VDD 2.53671e-18
CE87 MX64/M0#g VDD#42 2.43623e-18
CE88 RN#34 VDD#42 2.34754e-18
CE89 MX98/M1#g VDD#42 2.04705e-18
CE90 MX98/M1#g MX98/M0#s 1.79247e-18
CE91 MX98/M0#g MX98/M1#d 1.74461e-18
CE92 MX64/M0#g VDD 7.51351e-18
CE93 MX64/M0#g MX77/M0#s 9.10223e-18
CE94 RN#36 VDD 3.98999e-17
CE95 RN#35 MX93/M0#s 1.10474e-17
CE96 RN#34 VDD 2.33946e-17
CE97 RN#35 VDD 3.79671e-17
CE98 RN MX98/M0#s 2.45139e-17
CE99 RN VDD#42 8.21023e-18
CE100 MX98/M1#g VDD 1.10691e-17
CE101 MX98/M0#g VDD 1.29534e-17
CE102 MX98/M1#g MX98/M1#d 8.67532e-18
CE103 RN#35 VDD#42 6.80066e-18
CE104 RN VDD 1.32957e-17
CE105 MX98/M0#g MX98/M0#s 1.0052e-17
RgE64 MX64/M0#g RN#22 144.666946 $L=0.45 $W=0.15
RgE65 RN#22 RN#23 41.266922 $L=0.149 $W=0.18
RgE66 RN#23 RN#24 104.842880 $L=0.37 $W=0.15
RgE67 RN#24 RN#25 38.857975 $L=0.1645 $W=0.27
RgE68 RN#25 RN#26 284.491577 $L=0.885 $W=0.15
RgE69 RN#26 RN#27 41.266922 $L=0.149 $W=0.18
RgE70 RN#27 MX82/M0#g 167.276825 $L=0.31 $W=0.15
RgE71 MX98/M1#g RN#28 305.518768 $L=0.97 $W=0.15
RgE72 RN#28 RN#29 20.521515 $L=0.218 $W=0.33
RgE73 RN#29 RN#30 20.521515 $L=0.218 $W=0.33
RgE74 RN#30 RN#31 46.128941 $L=0.1645 $W=0.17
RgE75 RN#31 MX94/M1#g 432.264221 $L=1.345 $W=0.15
RgE76 RN#28 RN#32 46.128941 $L=0.1645 $W=0.17
RgE77 RN#32 MX94/M0#g 432.264221 $L=1.345 $W=0.15
RgE78 RN#30 RN#33 46.131256 $L=0.1645 $W=0.17
RgE79 RN#33 MX98/M0#g 258.744202 $L=0.805 $W=0.15
RfE80 RN#34 RN#35 36.141178 $L=0.48 $W=0.17
RfE81 RN#35 RN#36 245.835297 $L=3.265 $W=0.17
ReE82 RN RN#37 0.064904 $L=0.135 $W=0.26
RjE83 RN#35 RN#37 152.000000 $A=0.0289
RiE84 RN#29 RN#34 7.500000 $A=0.0578
RiE85 RN#24 RN#36 15.000000 $A=0.0289
*
*|NET 36 1.16685e-16
*|I (MX81/M0#s MX81/M0 s X 0 1.2595 0.8000)
*|I (MX69/M0#d MX69/M0 d X 0 0.9805 0.8000)
*|S (36 1.1200 0.8000)
CP1 36 VSS 8.00249e-18
CP2 36 VSS#19 6.01954e-18
CP3 36 VSS#36 7.26213e-18
CP4 36 MX73/M0#s 1.9803e-17
RmwP383 MX81/M0#s 36 0.001000 $W=1000000
RmwP384 MX69/M0#d 36 0.001000 $W=1000000
*
*|NET 38 1.45396e-16
*|I (MX79/M0#s MX79/M0 s X 0 1.2595 3.2800)
*|I (MX76/M0#d MX76/M0 d X 0 0.9805 3.2800)
*|S (38 1.1200 3.3200)
CP5 38 VSS 1.30054e-17
RmwP385 MX79/M0#s 38 0.001000 $W=1000000
RmwP386 MX76/M0#d 38 0.001000 $W=1000000
*
*|NET 40 1.06019e-16
*|I (MX91/M0#d MX91/M0 d X 0 2.1195 0.8000)
*|I (MX83/M0#s MX83/M0 s X 0 1.8405 0.8000)
*|S (40 1.9800 0.8000)
CP6 40 VSS 1.2141e-17
CP7 40 42 2.05659e-17
CP8 40 VSS#36 7.48732e-18
CP9 40 VSS#18 7.24683e-18
RmwP387 MX91/M0#d 40 0.001000 $W=1000000
RmwP388 MX83/M0#s 40 0.001000 $W=1000000
*
*|NET 42 1.05464e-16
*|I (MX91/M0#s MX91/M0 s X 0 2.2705 0.8000)
*|I (MX82/M0#d MX82/M0 d X 0 2.5495 0.8000)
*|S (42 2.4100 0.8000)
CP10 42 VSS 1.9911e-17
CP11 42 VSS#18 6.01954e-18
CP12 42 MX82/M0#s 2.20129e-17
CP13 42 VSS#36 7.48732e-18
RmwP389 MX91/M0#s 42 0.001000 $W=1000000
RmwP390 MX82/M0#d 42 0.001000 $W=1000000
*
*|NET 44 1.12036e-16
*|I (MX75/M0#s MX75/M0 s X 0 4.9405 0.8000)
*|I (MX72/M0#d MX72/M0 d X 0 5.2195 0.8000)
*|S (44 5.0800 0.8000)
CP14 44 VSS 2.00372e-17
CP15 44 VSS#36 6.02184e-18
CP16 44 MX72/M0#s 2.20074e-17
CP17 44 VSS#15 6.01954e-18
RmwP391 MX75/M0#s 44 0.001000 $W=1000000
RmwP392 MX72/M0#d 44 0.001000 $W=1000000
*
*|NET 46 1.35972e-16
*|I (MX93/M0#d MX93/M0 d X 0 5.2195 3.2800)
*|I (MX80/M0#s MX80/M0 s X 0 4.9405 3.2800)
*|S (46 5.0800 3.3200)
CP18 46 VSS 5.72832e-18
RmwP393 MX93/M0#d 46 0.001000 $W=1000000
RmwP394 MX80/M0#s 46 0.001000 $W=1000000
*
*|NET 3 4.85474e-16
*|I (MX77/M0#d MX77/M0 d X 0 2.1195 3.2800)
*|I (MX67/M0#s MX67/M0 s X 0 1.8405 3.2800)
*|I (MX64/M0#d MX64/M0 d X 0 2.7005 3.2800)
*|S (3 1.9800 3.2800)
*|S (3#2 1.9800 3.2800)
*|S (3#3 1.9800 3.1750)
*|S (3#5 2.8400 3.2800)
*|S (3#6 2.8400 3.1750)
*|S (3#7 2.8400 3.1750)
*|S (3#8 2.7250 3.1750)
*|S (3#9 2.0945 3.1750)
*|S (3#10 1.9800 3.1750)
CJ1 3#9 VSS 3.48523e-18
CJ2 3#8 VSS 2.31412e-18
CJ3 3#3 VSS 1.66586e-18
CJ4 3#6 VSS 1.34238e-18
CJ5 3 VSS 5.10995e-22
CJ6 3#8 5#17 1.59381e-18
CJ7 3#9 5 3.20744e-18
CJ8 3#3 5 6.79999e-18
CJ9 3#3 4 1.36456e-18
CJ10 3#9 4#36 1.27352e-18
CJ11 3#8 4#25 3.90714e-18
CJ12 3#3 4#30 1.39429e-17
CJ13 3#8 4#29 1.07054e-17
CJ14 3#6 4#37 4.24527e-18
CJ15 3#6 4#29 1.36684e-17
CJ16 3#8 4#37 2.46305e-17
CJ17 3#6 4#25 1.63123e-17
CJ18 3#9 4#30 1.07496e-17
RfJ224 3#2 3#3 7.905882 $L=0.105 $W=0.17
RfJ225 3#5 3#6 7.905882 $L=0.105 $W=0.17
ReJ226 3#7 3#8 0.049461 $L=0.1145 $W=0.29
ReJ227 3#8 3#9 0.463451 $L=0.63 $W=0.17
ReJ228 3#9 3#10 0.057878 $L=0.1145 $W=0.29
Rh_2_J229 3 3#2 15.000000 $A=0.0289
Rh_2_J230 MX64/M0#d 3#5 15.000000 $A=0.0289
RjJ231 3#6 3#7 152.000000 $A=0.0289
RjJ232 3#3 3#10 152.000000 $A=0.0289
RmwJ233 MX77/M0#d 3 0.001000 $W=1000000
RmwJ234 MX67/M0#s 3 0.001000 $W=1000000
*
*|NET 4 2.38659e-15
*|I (MX92/M0#g MX92/M0 g X 0 4.4350 0.8000)
*|I (MX83/M0#g MX83/M0 g X 0 1.7650 0.8000)
*|I (MX74/M0#d MX74/M0 d X 0 3.4995 0.8000)
*|I (MX80/M0#g MX80/M0 g X 0 4.8650 3.2800)
*|I (MX79/M0#g MX79/M0 g X 0 1.3350 3.2800)
*|I (MX65/M0#d MX65/M0 d X 0 3.4995 3.2800)
*|S (4 1.3350 3.2800)
*|S (4#15 1.3350 2.8145)
*|S (4#16 1.3350 2.6500)
*|S (4#17 1.7550 1.1250)
*|S (4#18 1.7550 1.2900)
*|S (4#19 4.4350 1.1250)
*|S (4#20 4.4350 1.2900)
*|S (4#21 4.8650 2.8145)
*|S (4#22 4.8650 2.6500)
*|S (4#24 3.3600 3.2800)
*|S (4#25 3.3600 3.1750)
*|S (4#26 3.3600 0.8500)
*|S (4#28 3.3600 0.8000)
*|S (4#29 3.3600 2.6500)
*|S (4#30 1.3350 2.6500)
*|S (4#31 5.0800 2.6500)
*|S (4#32 4.8650 2.6500)
*|S (4#33 5.0800 1.2900)
*|S (4#34 4.4350 1.2900)
*|S (4#35 3.3600 1.2900)
*|S (4#36 1.7550 1.2900)
*|S (4#37 3.3600 3.1750)
*|S (4#38 3.3600 2.6500)
*|S (4#39 3.3600 1.2900)
*|S (4#40 3.3600 0.8500)
*|S (4#41 5.0800 2.6500)
*|S (4#42 5.0800 1.2900)
CJ19 MX80/M0#g VSS 5.91391e-18
CJ20 MX74/M0#d VSS 5.64197e-18
CJ21 MX83/M0#g VSS 2.24039e-17
CJ22 MX92/M0#g VSS 2.239e-17
CJ23 4#42 VSS 3.76459e-17
CJ24 4#41 VSS 1.57138e-18
CJ25 4#40 VSS 6.43144e-18
CJ26 4#39 VSS 1.65448e-17
CJ27 4#38 VSS 1.44284e-18
CJ28 4#37 VSS 3.58729e-18
CJ29 4#36 VSS 3.14582e-17
CJ30 4#34 VSS 1.71268e-17
CJ31 4#32 VSS 1.40779e-18
CJ32 4#30 VSS 2.542e-18
CJ33 4#35 VSS 3.15636e-17
CJ34 4#29 VSS 5.77074e-18
CJ35 4#25 VSS 1.99474e-18
CJ36 4#33 VSS 2.16817e-17
CJ37 4#31 VSS 2.66993e-18
CJ38 4 VSS 1.79045e-18
CJ39 MX92/M0#g 44 1.28937e-18
CJ40 4#31 46 1.24504e-17
CJ41 4#30 38 1.06222e-17
CJ42 MX83/M0#g 40 6.21439e-18
CJ43 4#36 40 2.48809e-17
CJ44 MX80/M0#g 46 7.72091e-18
CJ45 4#41 46 7.77502e-18
CJ46 4#33 44 2.13602e-17
CJ47 4#40 42 3.26935e-18
CJ48 4#42 44 8.82903e-18
CJ49 4#40 40 1.73195e-18
CJ50 4#36 42 2.48809e-17
CJ51 MX83/M0#g 42 1.31748e-18
CJ52 4 38 7.72091e-18
CJ53 4#42 8#62 6.96082e-18
CJ54 4#41 8#62 6.90939e-18
CJ55 4#33 MX72/M0#g 5.253e-18
CJ56 4#31 8 5.15706e-18
CJ57 MX80/M0#g 6#20 6.79664e-18
CJ58 4#34 6#28 6.59987e-18
CJ59 MX92/M0#g MX92/M0#d 6.2356e-18
CJ60 4#33 6#27 3.10833e-18
CJ61 4#33 6#25 4.3332e-17
CJ62 4#34 MX92/M0#d 2.13458e-17
CJ63 4#42 6#27 7.18002e-17
CJ64 4#41 6#26 4.58959e-17
CJ65 4#32 6#26 1.27627e-17
CJ66 4#34 6#25 2.29029e-17
CJ67 4#42 6#25 3.19127e-17
CJ68 4#42 6#28 1.63836e-17
CJ69 4#41 6#27 4.14615e-17
CJ70 4#34 6#27 8.52044e-18
CJ71 4#32 6#20 8.41293e-18
CJ72 4#30 5 6.92662e-18
CJ73 MX92/M0#g MX92/M0#s 6.2356e-18
CJ74 4#39 5#20 5.72856e-18
CJ75 4#38 5#18 4.29905e-18
CJ76 4#32 5#18 3.11343e-18
CJ77 4#40 MX92/M0#s 1.84028e-18
CJ78 4#34 MX92/M0#s 2.13458e-17
CJ79 4#34 5#16 4.06773e-17
CJ80 4#39 5#19 2.36014e-17
CJ81 4#40 5#20 1.33444e-17
CJ82 4#36 5#17 4.70286e-17
CJ83 4#35 5#17 5.64343e-17
CJ84 4#36 MX91/M0#g 9.27001e-18
CJ85 4#34 5#20 1.22812e-17
CJ86 4#35 5#16 5.23344e-17
CJ87 4#38 5#19 1.18646e-17
CJ88 4#34 5#19 1.48266e-17
CJ89 4#39 5#16 3.19885e-17
CJ90 4#36 VSS#36 8.83752e-18
CJ91 4#35 VSS#36 8.56816e-18
CJ92 4#40 MX82/M0#s 7.55928e-18
CJ93 4#40 MX74/M0#s 7.17321e-18
CJ94 4#34 VSS#36 5.58764e-18
CJ95 MX74/M0#d VSS#36 5.3592e-18
CJ96 MX92/M0#g VSS#7 4.87612e-18
CJ97 MX83/M0#g VSS#36 4.8201e-18
CJ98 MX92/M0#g VSS#36 4.8201e-18
CJ99 MX74/M0#d VSS#7 4.79226e-18
CJ100 4#40 VSS#7 4.60773e-18
CJ101 4#33 VSS#36 4.48771e-18
CJ102 4#34 VSS#7 3.05594e-18
CJ103 4#36 VSS#18 2.95525e-18
CJ104 4#35 VSS#18 2.78075e-18
CJ105 MX83/M0#g VSS#19 2.43806e-18
CJ106 MX74/M0#d MX74/M0#s 2.0838e-17
CJ107 4#35 MX82/M0#s 1.82996e-17
CJ108 4#42 VSS#36 1.19414e-17
CJ109 4#35 MX74/M0#s 1.67375e-17
CJ110 MX74/M0#d MX82/M0#s 1.55689e-17
CJ111 4#40 VSS#36 2.07771e-17
RgJ235 4 4#15 149.464630 $L=0.465 $W=0.15
RgJ236 4#15 4#16 34.134449 $L=0.1645 $W=0.27
RgJ237 MX83/M0#g 4#17 104.477959 $L=0.325 $W=0.15
RgJ238 4#17 4#18 34.134449 $L=0.1645 $W=0.27
RgJ239 MX92/M0#g 4#19 104.477959 $L=0.325 $W=0.15
RgJ240 4#19 4#20 34.134449 $L=0.1645 $W=0.27
RgJ241 MX80/M0#g 4#21 149.464630 $L=0.465 $W=0.15
RgJ242 4#21 4#22 34.134449 $L=0.1645 $W=0.27
RfJ243 4#24 4#25 7.905882 $L=0.105 $W=0.17
RfJ244 4#26 4#28 3.764706 $L=0.05 $W=0.17
RfJ245 4#29 4#30 152.470596 $L=2.025 $W=0.17
RfJ246 4#31 4#32 16.188236 $L=0.215 $W=0.17
RfJ247 4#33 4#34 48.564705 $L=0.645 $W=0.17
RfJ248 4#34 4#35 80.941177 $L=1.075 $W=0.17
RfJ249 4#35 4#36 120.847061 $L=1.605 $W=0.17
ReJ250 4#37 4#38 0.285326 $L=0.525 $W=0.23
ReJ251 4#38 4#39 0.739130 $L=1.36 $W=0.23
ReJ252 4#39 4#40 0.239130 $L=0.44 $W=0.23
ReJ253 4#41 4#42 0.739130 $L=1.36 $W=0.23
RhJ254 MX74/M0#d 4#28 15.000000 $A=0.0289
Rh_2_J255 MX65/M0#d 4#24 15.000000 $A=0.0289
RjJ256 4#25 4#37 152.000000 $A=0.0289
RjJ257 4#29 4#38 152.000000 $A=0.0289
RjJ258 4#35 4#39 152.000000 $A=0.0289
RjJ259 4#26 4#40 152.000000 $A=0.0289
RjJ260 4#31 4#41 152.000000 $A=0.0289
RjJ261 4#33 4#42 152.000000 $A=0.0289
RiJ262 4#16 4#30 15.000000 $A=0.0289
RiJ263 4#22 4#32 15.000000 $A=0.0289
RiJ264 4#20 4#34 15.000000 $A=0.0289
RiJ265 4#18 4#36 15.000000 $A=0.0289
RmwJ266 MX79/M0#g 4 0.001000 $W=1000000
*
*|NET 5 1.40596e-15
*|I (MX92/M0#s MX92/M0 s X 0 4.3595 0.8000)
*|I (MX91/M0#g MX91/M0 g X 0 2.1950 0.8000)
*|I (MX70/M0#d MX70/M0 d X 0 4.0805 0.8000)
*|I (MX78/M0#d MX78/M0 d X 0 4.0805 3.2800)
*|I (MX77/M0#g MX77/M0 g X 0 2.1950 3.2800)
*|I (MX68/M0#s MX68/M0 s X 0 4.3595 3.2800)
*|S (5 2.1950 3.2800)
*|S (5#8 2.2350 1.6300)
*|S (5#9 2.2350 1.4650)
*|S (5#11 4.2200 3.2800)
*|S (5#12 4.2200 3.1750)
*|S (5#13 4.2200 0.8500)
*|S (5#15 4.2200 0.8000)
*|S (5#16 4.2200 1.6300)
*|S (5#17 2.2350 1.6300)
*|S (5#18 4.2200 3.1750)
*|S (5#19 4.2200 1.6300)
*|S (5#20 4.2200 0.8500)
CK1 MX91/M0#g VSS 3.35865e-17
CK2 MX92/M0#s VSS 3.27049e-18
CK3 5#20 VSS 6.37135e-18
CK4 5#19 VSS 2.69486e-18
CK5 5#18 VSS 5.93888e-18
CK6 5#17 VSS 3.95558e-17
CK7 5#16 VSS 2.29105e-17
CK8 5#12 VSS 8.85472e-18
CK9 5 VSS 1.00404e-17
CK10 5#19 6#25 3.87008e-18
CK11 5#16 6#27 3.64395e-18
CK12 MX92/M0#s 6#28 3.52588e-18
CK13 5#20 MX92/M0#d 3.52588e-18
CK14 5#20 6#28 5.28576e-17
CK15 5#19 6#27 1.13035e-16
CK16 MX92/M0#s MX92/M0#d 1.85718e-17
CK17 5#18 6#26 9.57299e-17
CK18 5#16 6#25 1.37654e-17
CK19 5#12 6#20 2.32214e-17
CK20 5#20 MX74/M0#s 6.39346e-18
CK21 MX92/M0#s VSS#7 6.01954e-18
CK22 MX92/M0#s VSS#36 5.3592e-18
CK23 MX91/M0#g VSS#18 4.87612e-18
CK24 MX91/M0#g VSS#36 4.8201e-18
CK25 5#20 VSS#7 4.60773e-18
CK26 5#20 VSS#36 2.07771e-17
CK27 MX92/M0#s MX74/M0#s 2.0838e-17
RgK267 5 5#8 506.635559 $L=1.65 $W=0.15
RgK268 5#8 5#9 34.134449 $L=0.1645 $W=0.27
RgK269 5#9 MX91/M0#g 213.731293 $L=0.665 $W=0.15
RfK270 5#11 5#12 7.905882 $L=0.105 $W=0.17
RfK271 5#13 5#15 3.764706 $L=0.05 $W=0.17
RfK272 5#16 5#17 149.458832 $L=1.985 $W=0.17
ReK273 5#18 5#19 0.839674 $L=1.545 $W=0.23
ReK274 5#19 5#20 0.423913 $L=0.78 $W=0.23
RhK275 MX92/M0#s 5#15 15.000000 $A=0.0289
Rh_2_K276 MX78/M0#d 5#11 15.000000 $A=0.0289
RjK277 5#12 5#18 152.000000 $A=0.0289
RjK278 5#16 5#19 152.000000 $A=0.0289
RjK279 5#13 5#20 152.000000 $A=0.0289
RiK280 5#8 5#17 15.000000 $A=0.0289
RmwK281 MX70/M0#d MX92/M0#s 0.001000 $W=1000000
RmwK282 MX77/M0#g 5 0.001000 $W=1000000
RmwK283 MX68/M0#s MX78/M0#d 0.001000 $W=1000000
*
*|NET 8 2.34309e-15
*|I (MX100/M0#g MX100/M0 g X 0 8.9150 0.8000)
*|I (MX100/M1#g MX100/M1 g X 0 9.3450 0.8000)
*|I (MX100/M2#g MX100/M2 g X 0 9.7750 0.8000)
*|I (MX100/M3#g MX100/M3 g X 0 10.2050 0.8000)
*|I (MX99/M0#d MX99/M0 d X 0 7.1805 0.8000)
*|I (MX99/M1#s MX99/M1 s X 0 7.4595 0.8000)
*|I (MX72/M0#g MX72/M0 g X 0 5.2950 0.8000)
*|I (MX71/M0#g MX71/M0 g X 0 8.4850 0.8000)
*|I (MX98/M0#d MX98/M0 d X 0 6.3205 3.2800)
*|I (MX98/M1#s MX98/M1 s X 0 6.5995 3.2800)
*|I (MX97/M0#g MX97/M0 g X 0 8.9150 3.2400)
*|I (MX97/M1#g MX97/M1 g X 0 9.3450 3.2400)
*|I (MX97/M2#g MX97/M2 g X 0 9.7750 3.2400)
*|I (MX97/M3#g MX97/M3 g X 0 10.2050 3.2400)
*|I (MX96/M0#d MX96/M0 d X 0 7.1805 3.2800)
*|I (MX96/M1#s MX96/M1 s X 0 7.4595 3.2800)
*|I (MX93/M0#g MX93/M0 g X 0 5.2950 3.2800)
*|I (MX66/M0#g MX66/M0 g X 0 8.4850 3.2400)
*|S (8 5.2950 3.2800)
*|S (8#43 5.3550 2.1345)
*|S (8#44 5.3550 1.9700)
*|S (8#45 5.3550 1.8050)
*|S (8#46 10.2050 1.9700)
*|S (8#47 9.7750 1.9700)
*|S (8#48 9.3450 1.9700)
*|S (8#49 8.9150 1.9700)
*|S (8#50 8.4850 1.9700)
*|S (8#51 6.4600 3.3550)
*|S (8#53 6.4600 3.2800)
*|S (8#54 7.3200 3.3550)
*|S (8#56 7.3200 3.2800)
*|S (8#57 7.3200 1.0350)
*|S (8#59 7.3200 0.8000)
*|S (8#60 9.3450 1.9700)
*|S (8#61 7.3200 1.9700)
*|S (8#62 5.3550 1.9700)
*|S (8#63 7.3200 1.9700)
*|S (8#64 7.3200 3.3550)
*|S (8#65 7.2050 3.2150)
*|S (8#66 6.5745 3.2150)
*|S (8#67 6.4600 3.3550)
*|S (8#68 7.3200 1.0350)
CN1 MX66/M0#g VSS 7.33617e-19
CN2 MX97/M3#g VSS 4.5378e-18
CN3 MX97/M2#g VSS 1.54873e-18
CN4 MX97/M1#g VSS 2.1206e-18
CN5 MX97/M0#g VSS 4.38919e-18
CN6 MX71/M0#g VSS 1.34433e-17
CN7 MX72/M0#g VSS 2.15378e-17
CN8 MX99/M0#d VSS 8.72405e-19
CN9 MX100/M3#g VSS 1.89566e-17
CN10 MX100/M2#g VSS 1.53227e-17
CN11 MX100/M1#g VSS 1.18719e-17
CN12 MX100/M0#g VSS 1.54578e-17
CN13 8#68 VSS 3.86323e-17
CN14 8#66 VSS 4.87526e-18
CN15 8#65 VSS 5.72683e-18
CN16 8#63 VSS 4.55383e-18
CN17 8#62 VSS 3.25034e-17
CN18 8#60 VSS 5.91549e-17
CN19 8#51 VSS 2.21375e-18
CN20 8#57 VSS 1.14447e-17
CN21 8#61 VSS 4.62555e-17
CN22 8#54 VSS 1.40188e-18
CN23 8 VSS 8.6449e-19
CN24 8 46 8.17266e-18
CN25 8#66 46 2.63109e-18
CN26 MX71/M0#g MX71/M0#d 7.12693e-18
CN27 MX100/M2#g 9#40 5.38824e-18
CN28 MX71/M0#g 9#41 5.38824e-18
CN29 MX100/M1#g 9#41 5.38824e-18
CN30 MX100/M0#g 9#41 5.38824e-18
CN31 8#63 9#42 5.29199e-18
CN32 8#68 MX71/M0#d 4.45536e-18
CN33 8#68 9#43 3.95501e-18
CN34 8#63 9#41 3.76737e-18
CN35 MX100/M3#g 9#40 3.76584e-18
CN36 8#57 MX71/M0#d 3.49398e-18
CN37 8#65 MX66/M0#d 3.28035e-18
CN38 8#60 MX66/M0#d 2.96863e-18
CN39 MX66/M0#g 9#42 2.75143e-18
CN40 8#57 9#44 2.44808e-18
CN41 MX71/M0#g 9#44 1.73378e-18
CN42 8#60 9#40 4.8329e-17
CN43 8#68 9#44 1.95006e-17
CN44 8#60 9#41 1.21321e-16
CN45 8#60 9#43 3.77109e-17
CN46 8#63 9#43 2.83939e-17
CN47 8#65 9#42 3.44563e-17
CN48 MX66/M0#g MX66/M0#d 8.92907e-18
CN49 MX99/M0#d VSS#14 7.27364e-18
CN50 MX72/M0#g MX72/M0#s 7.2112e-18
CN51 MX71/M0#g MX100/M0#s 6.57799e-18
CN52 MX100/M3#g MX100/M3#d 6.21439e-18
CN53 MX100/M2#g MX100/M1#d 6.21439e-18
CN54 MX100/M1#g MX100/M1#d 6.21439e-18
CN55 MX100/M0#g MX100/M0#s 6.21439e-18
CN56 MX72/M0#g VSS#36 4.8201e-18
CN57 MX71/M0#g VSS#35 4.8201e-18
CN58 MX100/M2#g VSS#35 4.8201e-18
CN59 MX100/M0#g VSS#35 4.8201e-18
CN60 MX71/M0#g VSS#13 4.29097e-18
CN61 MX100/M0#g VSS#13 4.29097e-18
CN62 MX100/M3#g VSS#5 4.29097e-18
CN63 MX100/M2#g VSS#7 4.29097e-18
CN64 MX100/M1#g VSS#7 4.29097e-18
CN65 MX72/M0#g VSS#15 4.00073e-18
CN66 MX99/M0#d VSS#35 3.91875e-18
CN67 8#60 VSS#35 3.78997e-18