*
*|DSPF 1.5
*
*|DATE "Fri Feb 28 13:38:15 2025"
*|VENDOR "Cadence Design Systems"
*|PROGRAM "Cadence Quantus Extraction"
*|VERSION "22.1.0-p089 Linux 64 bit - (Thu Jan 19 11:47:08 PST 2023)"
*|DESIGN "DFFRX1_LP"
*|DIVIDER /
*|DELIMITER #
*|DeviceFingerDelim "@"
*|BUSBIT []
*|GLOBAL_TEMPERATURE 25
*|OPERATING_TEMPERATURE 25
** QRC_TECH_DIR /vols/wfo_devel/projects/reference_SKY130/tech/sky130_release_0.0.4/quantus/extraction/typical 
** HIERARCHICAL_SPLIT_PINS_DELIMITER '%'
** caps2d version: 10
*
.SUBCKT  DFFRX1_LP CK D Q QN RN VDD VSS
*
*Net Section
*
*|GROUND_NET VSS
*
*|NET CK 5.06034e-16
*|P (CK X 0 0.9350 2.9100)
*|I (MX63/M0#g MX63/M0 g X 0 0.4750 0.8000)
*|I (MX52/M0#g MX52/M0 g X 0 0.4750 3.1950)
*|S (CK#8 0.4750 2.6500)
*|S (CK#9 0.4750 2.4850)
*|S (CK#10 0.9050 2.6500)
*|S (CK#11 0.4750 2.6500)
*|S (CK#12 0.9050 2.6500)
CA1 MX52/M0#g VSS 5.83501e-19
CA2 MX63/M0#g VSS 1.74359e-17
CA3 CK#12 VSS 2.36803e-18
CA4 CK#11 VSS 8.1809e-19
CA5 CK#10 VSS 2.95437e-18
CA6 CK VSS 1.97005e-18
CA7 MX52/M0#g 30 2.65529e-18
CA8 CK 30 2.43878e-17
CA9 CK#10 4#30 1.32272e-17
CA10 CK#12 4#30 6.73357e-18
CA11 CK 2#19 4.94742e-17
CA12 CK#12 2#19 2.97734e-17
CA13 CK 2#12 4.0841e-18
CA14 MX52/M0#g 1#41 1.85035e-18
CA15 MX63/M0#g MX63/M0#d 8.12962e-18
CA16 CK 1#33 6.76444e-18
CA17 CK#11 1#41 2.43159e-17
CA18 CK#12 1#42 1.8302e-17
CA19 MX52/M0#g 1#40 3.32416e-18
CA20 MX63/M0#g 1#40 4.3933e-18
CA21 CK#12 1#40 4.04892e-18
CA22 MX52/M0#g 1#33 8.88823e-18
CA23 CK#11 1#40 1.13527e-17
CA24 CK 1#41 3.19023e-17
CA25 CK#10 1#39 3.23256e-18
CA26 CK#11 1#33 1.21118e-17
CA27 CK#12 1#39 5.35014e-18
CA28 CK#10 1#40 5.25725e-18
CA29 CK#12 1#41 8.99647e-18
CA30 MX63/M0#g MX63/M0#s 8.41205e-18
CA31 MX63/M0#g VSS#17 4.22131e-18
CA32 MX63/M0#g VSS#26 4.8201e-18
CA33 CK#10 VDD#29 8.41172e-19
CA34 MX52/M0#g VDD 1.37865e-17
CA35 CK#10 MX68/M0#s 1.40171e-17
CA36 CK#11 VDD 1.32424e-17
CA37 CK#12 VDD 5.98854e-18
CA38 CK VDD#29 2.42117e-17
CA39 CK VDD#24 4.5998e-18
CA40 CK#11 VDD#29 2.70131e-18
CA41 MX52/M0#g VDD#24 3.36646e-18
CA42 CK MX68/M0#s 2.57494e-17
CA43 CK#11 MX68/M0#s 1.41081e-17
CA44 MX52/M0#g MX68/M0#s 9.07616e-18
CA45 CK VDD 1.09528e-17
CA46 MX52/M0#g VDD#29 4.96661e-18
CA47 CK#10 VDD 5.92837e-18
CA48 MX63/M0#g D#11 2.94699e-18
CA49 CK#12 D 1.21155e-17
CA50 CK#10 MX68/M0#g 5.2965e-18
RgA1 MX52/M0#g CK#8 156.285751 $L=0.545 $W=0.15
RgA2 CK#8 CK#9 34.134449 $L=0.1645 $W=0.27
RgA3 CK#9 MX63/M0#g 541.491272 $L=1.685 $W=0.15
RfA4 CK#10 CK#11 32.376472 $L=0.43 $W=0.17
ReA5 CK CK#12 0.125000 $L=0.26 $W=0.26
RjA6 CK#10 CK#12 152.000000 $A=0.0289
RiA7 CK#8 CK#11 15.000000 $A=0.0289
*
*|NET 3 5.13397e-16
*|I (MX69/M0#d MX69/M0 d X 0 2.1195 3.1950)
*|I (MX57/M0#s MX57/M0 s X 0 1.8405 3.1950)
*|I (MX53/M0#d MX53/M0 d X 0 2.7005 3.1950)
*|S (3 1.9800 3.1950)
*|S (3#2 1.9800 3.1950)
*|S (3#3 1.9800 3.0900)
*|S (3#5 2.8400 3.1950)
*|S (3#6 2.8400 3.0900)
*|S (3#7 2.8400 3.0900)
*|S (3#8 2.7250 3.0900)
*|S (3#9 2.0945 3.0900)
*|S (3#10 1.9800 3.0900)
CJ1 3#9 VSS 5.6769e-18
CJ2 3#8 VSS 4.18603e-18
CJ3 3#3 VSS 2.49731e-18
CJ4 3#6 VSS 2.14934e-18
CJ5 3 VSS 5.10995e-22
CJ6 3#8 5#17 1.67315e-18
CJ7 3#3 5 6.80054e-18
CJ8 3#9 5 3.26644e-18
CJ9 3#9 4#36 1.59449e-18
CJ10 3#3 4 1.36047e-18
CJ11 3#9 4#30 1.18531e-17
CJ12 3#6 4#37 4.24527e-18
CJ13 3#8 4#29 1.17744e-17
CJ14 3#8 4#37 2.46305e-17
CJ15 3#8 4#25 3.90714e-18
CJ16 3#6 4#25 1.63341e-17
CJ17 3#6 4#29 2.43092e-17
CJ18 3#3 4#30 2.46009e-17
RfJ156 3#2 3#3 7.905882 $L=0.105 $W=0.17
RfJ157 3#5 3#6 7.905882 $L=0.105 $W=0.17
ReJ158 3#7 3#8 0.049461 $L=0.1145 $W=0.29
ReJ159 3#8 3#9 0.463451 $L=0.63 $W=0.17
ReJ160 3#9 3#10 0.057878 $L=0.1145 $W=0.29
Rh_2_J161 3 3#2 15.000000 $A=0.0289
Rh_2_J162 MX53/M0#d 3#5 15.000000 $A=0.0289
RjJ163 3#6 3#7 152.000000 $A=0.0289
RjJ164 3#3 3#10 152.000000 $A=0.0289
RmwJ165 MX69/M0#d 3 0.001000 $W=1000000
RmwJ166 MX57/M0#s 3 0.001000 $W=1000000
*
*|NET 28 1.12635e-16
*|I (MX73/M0#s MX73/M0 s X 0 1.2595 0.8000)
*|I (MX59/M0#d MX59/M0 d X 0 0.9805 0.8000)
*|S (28 1.1200 0.8000)
CP1 28 VSS 7.95159e-18
CP2 28 VSS#26 6.31417e-18
CP3 28 MX63/M0#s 1.87745e-17
CP4 28 VSS#17 6.01234e-18
RmwP280 MX73/M0#s 28 0.001000 $W=1000000
RmwP281 MX59/M0#d 28 0.001000 $W=1000000
*
*|NET 30 1.45717e-16
*|I (MX71/M0#s MX71/M0 s X 0 1.2595 3.1950)
*|I (MX68/M0#d MX68/M0 d X 0 0.9805 3.1950)
*|S (30 1.1200 3.2350)
CP5 30 VSS 1.46039e-17
RmwP282 MX71/M0#s 30 0.001000 $W=1000000
RmwP283 MX68/M0#d 30 0.001000 $W=1000000
*
*|NET 32 1.06339e-16
*|I (MX83/M0#d MX83/M0 d X 0 2.1195 0.8000)
*|I (MX75/M0#s MX75/M0 s X 0 1.8405 0.8000)
*|S (32 1.9800 0.8000)
CP6 32 VSS 1.27276e-17
CP7 32 VSS#26 7.48732e-18
CP8 32 VSS#16 7.24683e-18
CP9 32 34 2.05659e-17
RmwP284 MX83/M0#d 32 0.001000 $W=1000000
RmwP285 MX75/M0#s 32 0.001000 $W=1000000
*
*|NET 34 1.03537e-16
*|I (MX83/M0#s MX83/M0 s X 0 2.2705 0.8000)
*|I (MX74/M0#d MX74/M0 d X 0 2.5495 0.8000)
*|S (34 2.4100 0.8000)
CP10 34 VSS 1.87714e-17
CP11 34 MX74/M0#s 2.17828e-17
CP12 34 VSS#26 7.48732e-18
CP13 34 VSS#16 6.01954e-18
RmwP286 MX83/M0#s 34 0.001000 $W=1000000
RmwP287 MX74/M0#d 34 0.001000 $W=1000000
*
*|NET 36 1.09606e-16
*|I (MX67/M0#s MX67/M0 s X 0 4.9405 0.8000)
*|I (MX62/M0#d MX62/M0 d X 0 5.2195 0.8000)
*|S (36 5.0800 0.8000)
CP14 36 VSS 1.67101e-17
CP15 36 VSS#26 6.02184e-18
CP16 36 VSS#7 6.01954e-18
CP17 36 MX62/M0#s 2.42138e-17
RmwP288 MX67/M0#s 36 0.001000 $W=1000000
RmwP289 MX62/M0#d 36 0.001000 $W=1000000
*
*|NET Q 7.68022e-16
*|P (Q X 0 7.8350 2.0550)
*|I (MX61/M0#d MX61/M0 d X 0 7.9795 0.8000)
*|I (MX56/M0#d MX56/M0 d X 0 7.9795 3.1550)
*|S (Q#2 7.8400 3.1550)
*|S (Q#3 7.8400 3.1250)
*|S (Q#4 7.8400 1.0050)
*|S (Q#6 7.8400 0.8000)
*|S (Q#7 7.8400 1.0050)
*|S (Q#8 7.8400 3.1250)
CC1 MX61/M0#d VSS 1.33661e-17
CC2 Q#8 VSS 6.19367e-19
CC3 Q#7 VSS 1.18382e-17
CC4 Q#3 VSS 2.15909e-18
CC5 Q VSS 2.33445e-18
CC6 Q 26#17 2.77736e-18
CC7 Q#3 26 2.61119e-18
CC8 Q 26#18 4.43765e-18
CC9 Q#7 26#14 7.61535e-18
CC10 Q 26#20 5.2129e-17
CC11 Q 26#19 8.83996e-18
CC12 Q#7 26#18 1.35373e-17
CC13 Q#3 26#19 8.65809e-18
CC14 Q#8 26#11 7.13769e-18
CC15 MX61/M0#d 26#18 2.11231e-17
CC16 Q#8 26#19 9.1726e-17
CC17 MX61/M0#d 26#14 2.35498e-17
CC18 Q#7 26#21 6.17491e-17
CC19 Q#7 26#20 2.64682e-17
CC20 MX61/M0#d 26#21 1.01306e-17
CC21 Q#3 26#11 2.4899e-17
CC22 Q#7 26#17 8.71862e-18
CC23 Q#8 MX56/M0#g 2.77094e-18
CC24 Q#3 MX55/M0#g 2.36603e-18
CC25 MX61/M0#d MX65/M0#g 1.74674e-18
CC26 Q#7 MX61/M0#g 1.68862e-18
CC27 Q#3 MX56/M0#g 1.10857e-17
CC28 Q#3 7#37 4.18763e-18
CC29 MX61/M0#d MX61/M0#g 7.12693e-18
CC30 Q 7#37 3.07424e-17
CC31 Q#7 MX66/M0#s 6.98493e-18
CC32 Q#7 VSS#25 1.93447e-17
CC33 MX61/M0#d VSS#4 6.0875e-18
CC34 Q#7 VSS#4 6.29382e-18
CC35 MX61/M0#d MX66/M0#s 1.99919e-17
CC36 MX61/M0#d VSS#25 5.58537e-18
CC37 Q#8 VDD 1.54119e-17
CC38 Q#8 VDD#28 1.90012e-17
CC39 Q#3 VDD 9.22662e-18
CC40 Q#3 MX56/M0#s 3.07249e-17
CC41 Q#8 VDD#4 6.58706e-18
CC42 Q#8 MX56/M0#s 1.08847e-17
CC43 Q VDD 6.00809e-18
CC44 Q#3 VDD#28 5.43032e-18
CC45 Q#3 VDD#4 5.75282e-18
CC46 MX61/M0#d QN#7 5.08516e-18
CC47 Q#8 QN#8 3.88079e-17
CC48 Q#3 QN#8 3.45002e-18
CC49 Q#7 MX66/M0#d 4.86442e-18
CC50 Q#7 QN#7 3.69376e-17
CC51 Q QN 2.87732e-17
CC52 Q#8 QN#3 3.2803e-18
CC53 MX61/M0#d MX66/M0#d 5.36689e-18
RfC15 Q#2 Q#3 2.258824 $L=0.03 $W=0.17
RfC16 Q#4 Q#6 15.435293 $L=0.205 $W=0.17
ReC17 Q Q#7 0.501860 $L=1.05 $W=0.26
ReC18 Q Q#8 0.511475 $L=1.07 $W=0.26
RhC19 MX61/M0#d Q#6 15.000000 $A=0.0289
Rh_2_C20 MX56/M0#d Q#2 15.000000 $A=0.0289
RjC21 Q#4 Q#7 76.000000 $A=0.0578
RjC22 Q#3 Q#8 76.000000 $A=0.0578
*
*|NET D 4.77172e-16
*|P (D X 0 0.9350 1.0350)
*|I (MX59/M0#g MX59/M0 g X 0 0.9050 0.8000)
*|I (MX68/M0#g MX68/M0 g X 0 0.9050 3.1950)
*|S (D#8 0.9050 1.2900)
*|S (D#9 0.9050 1.1250)
*|S (D#10 0.9200 1.2900)
*|S (D#11 0.9050 1.2900)
*|S (D#12 0.9200 1.2900)
CB1 MX68/M0#g VSS 9.19899e-18
CB2 MX59/M0#g VSS 1.15141e-17
CB3 D#11 VSS 2.22762e-17
CB4 D VSS 3.87758e-17
CB5 MX59/M0#g 28 6.24202e-18
CB6 D#11 28 1.28059e-17
CB7 D 28 1.87823e-17
CB8 MX68/M0#g 2#12 1.43725e-18
CB9 D MX75/M0#d 4.01246e-18
CB10 D#11 2#20 5.87391e-18
CB11 D 2#20 6.28646e-17
CB12 MX68/M0#g 1#33 1.69037e-18
CB13 MX59/M0#g MX63/M0#d 1.54951e-18
CB14 MX59/M0#g 1#39 7.39936e-19
CB15 D 1#40 4.04892e-18
CB16 D#11 1#39 6.31727e-18
CB17 D#11 1#43 1.26951e-17
CB18 D 1#43 4.20015e-17
CB19 D 1#42 1.82378e-17
CB20 D#11 1#40 1.28034e-17
CB21 D 1#39 4.84771e-18
CB22 D MX63/M0#d 5.57859e-18
CB23 D VSS#16 1.54545e-18
CB24 D#11 VSS#17 1.42797e-18
CB25 D MX63/M0#s 2.37651e-17
CB26 MX59/M0#g VSS#17 3.64084e-18
CB27 MX59/M0#g MX63/M0#s 7.18778e-18
CB28 D#11 MX63/M0#s 2.82162e-17
CB29 D VSS#17 1.13298e-17
CB30 D MX74/M0#s 2.52622e-18
CB31 D#11 VSS#26 3.39246e-18
CB32 D VSS#26 4.87055e-17
CB33 MX68/M0#g VDD 7.17319e-18
CB34 MX68/M0#g VDD#29 2.48668e-18
CB35 MX68/M0#g VDD#24 3.36646e-18
CB36 MX68/M0#g MX68/M0#s 7.75523e-18
RgB8 MX68/M0#g D#8 593.299072 $L=1.905 $W=0.15
RgB9 D#8 D#9 34.134449 $L=0.1645 $W=0.27
RgB10 D#9 MX59/M0#g 104.477959 $L=0.325 $W=0.15
RfB11 D#10 D#11 1.129412 $L=0.015 $W=0.17
ReB12 D D#12 0.122596 $L=0.255 $W=0.26
RjB13 D#10 D#12 152.000000 $A=0.0289
RiB14 D#8 D#11 15.000000 $A=0.0289
*
*|NET 4 2.39697e-15
*|I (MX84/M0#g MX84/M0 g X 0 4.4350 0.8000)
*|I (MX75/M0#g MX75/M0 g X 0 1.7650 0.8000)
*|I (MX64/M0#d MX64/M0 d X 0 3.4995 0.8000)
*|I (MX72/M0#g MX72/M0 g X 0 4.8650 3.1950)
*|I (MX71/M0#g MX71/M0 g X 0 1.3350 3.1950)
*|I (MX54/M0#d MX54/M0 d X 0 3.4995 3.1950)
*|S (4 1.3350 3.1950)
*|S (4#15 1.3350 2.8145)
*|S (4#16 1.3350 2.6500)
*|S (4#17 1.7550 1.1250)
*|S (4#18 1.7550 1.2900)
*|S (4#19 4.4350 1.1250)
*|S (4#20 4.4350 1.2900)
*|S (4#21 4.8650 2.8145)
*|S (4#22 4.8650 2.6500)
*|S (4#24 3.3600 3.1950)
*|S (4#25 3.3600 3.0900)
*|S (4#26 3.3600 0.8500)
*|S (4#28 3.3600 0.8000)
*|S (4#29 3.3600 2.6500)
*|S (4#30 1.3350 2.6500)
*|S (4#31 5.0800 2.6500)
*|S (4#32 4.8650 2.6500)
*|S (4#33 5.0800 1.2900)
*|S (4#34 4.4350 1.2900)
*|S (4#35 3.3600 1.2900)
*|S (4#36 1.7550 1.2900)
*|S (4#37 3.3600 3.0900)
*|S (4#38 3.3600 2.6500)
*|S (4#39 3.3600 1.2900)
*|S (4#40 3.3600 0.8500)
*|S (4#41 5.0800 2.6500)
*|S (4#42 5.0800 1.2900)
CK1 MX72/M0#g VSS 7.61102e-18
CK2 MX64/M0#d VSS 5.67641e-18
CK3 MX75/M0#g VSS 1.99043e-17
CK4 MX84/M0#g VSS 2.24162e-17
CK5 4#42 VSS 1.26564e-17
CK6 4#40 VSS 8.02715e-18
CK7 4#39 VSS 1.65448e-17
CK8 4#37 VSS 2.3691e-18
CK9 4#36 VSS 3.14074e-17
CK10 4#34 VSS 1.69878e-17
CK11 4#32 VSS 1.41305e-18
CK12 4#30 VSS 3.38764e-18
CK13 4#35 VSS 2.94508e-17
CK14 4#29 VSS 4.55135e-18
CK15 4#25 VSS 1.98209e-18
CK16 4#33 VSS 2.54043e-17
CK17 4#31 VSS 1.68866e-18
CK18 4 VSS 3.18387e-18
CK19 4#31 38 2.15236e-17
CK20 MX72/M0#g 38 7.72091e-18
CK21 4#41 38 9.51532e-18
CK22 4#42 36 8.82903e-18
CK23 4#36 34 2.48809e-17
CK24 4#30 30 1.412e-17
CK25 MX84/M0#g 36 1.28937e-18
CK26 MX75/M0#g 32 6.21439e-18
CK27 MX75/M0#g 34 1.31748e-18
CK28 4#40 32 1.73195e-18
CK29 4 30 7.72091e-18
CK30 4#36 32 2.48809e-17
CK31 4#40 34 2.71139e-18
CK32 4#33 36 2.13602e-17
CK33 4#41 7#41 6.81035e-18
CK34 4#31 7 5.74001e-18
CK35 4#41 7#42 5.66025e-18
CK36 4#42 7#44 5.2353e-18
CK37 4#33 MX62/M0#g 5.19678e-18
CK38 4#31 7#41 3.44628e-18
CK39 4#42 7#42 9.93289e-18
CK40 4#42 7#40 8.08759e-18
CK41 4#41 7#40 8.02596e-18
CK42 MX84/M0#g MX84/M0#d 6.2356e-18
CK43 4#33 6#20 2.94716e-18
CK44 MX72/M0#g 6#13 6.79664e-18
CK45 4#34 6#20 8.52044e-18
CK46 4#34 6#18 2.29029e-17
CK47 4#42 6#21 1.65251e-17
CK48 4#32 6#19 1.23358e-17
CK49 4#33 6#18 4.3332e-17
CK50 4#41 6#19 5.00717e-17
CK51 4#32 6#13 1.21118e-17
CK52 4#34 6#21 6.59987e-18
CK53 4#42 6#20 7.23127e-17
CK54 4#42 6#18 2.82161e-17
CK55 4#41 6#20 3.814e-17
CK56 4#34 MX84/M0#d 2.13458e-17
CK57 MX84/M0#g MX84/M0#s 6.2356e-18
CK58 4#39 5#20 5.72856e-18
CK59 4#38 5#18 4.68181e-18
CK60 4#32 5#18 3.11343e-18
CK61 4#34 MX84/M0#s 2.13458e-17
CK62 4#39 5#19 2.36014e-17
CK63 4#30 5 7.71739e-18
CK64 4#36 5#17 4.70286e-17
CK65 4#38 5#19 1.1494e-17
CK66 4#40 5#20 1.35783e-17
CK67 4#36 MX83/M0#g 9.17078e-18
CK68 4#34 5#19 1.48266e-17
CK69 4#35 5#17 5.64343e-17
CK70 4#34 5#16 4.06773e-17
CK71 4#34 5#20 1.22812e-17
CK72 4#39 5#16 3.19885e-17
CK73 4#35 5#16 5.23344e-17
CK74 4#36 VSS#26 8.83752e-18
CK75 4#35 VSS#26 8.56778e-18
CK76 4#40 MX74/M0#s 7.69692e-18
CK77 4#40 MX64/M0#s 7.31964e-18
CK78 4#34 VSS#26 5.58764e-18
CK79 MX64/M0#d VSS#26 5.3592e-18
CK80 MX84/M0#g VSS#4 4.87612e-18
CK81 MX75/M0#g VSS#26 4.8201e-18
CK82 MX84/M0#g VSS#26 4.8201e-18
CK83 MX64/M0#d VSS#4 4.79226e-18
CK84 4#40 VSS#4 4.60773e-18
CK85 4#33 VSS#26 4.48771e-18
CK86 4#34 VSS#4 3.05594e-18
CK87 4#36 VSS#16 2.95525e-18
CK88 4#35 VSS#16 2.78075e-18
CK89 MX75/M0#g VSS#17 2.43806e-18
CK90 MX75/M0#g VSS#16 2.42181e-18
CK91 MX64/M0#d MX74/M0#s 1.51502e-17
CK92 4#35 MX74/M0#s 2.82162e-17
CK93 4#40 VSS#26 2.07771e-17
CK94 4#35 MX64/M0#s 2.18448e-17
CK95 MX64/M0#d MX64/M0#s 2.02979e-17
CK96 4#42 VSS#26 1.19414e-17
RgK167 4 4#15 122.151299 $L=0.38 $W=0.15
RgK168 4#15 4#16 34.134449 $L=0.1645 $W=0.27
RgK169 MX75/M0#g 4#17 104.477959 $L=0.325 $W=0.15
RgK170 4#17 4#18 34.134449 $L=0.1645 $W=0.27
RgK171 MX84/M0#g 4#19 104.477959 $L=0.325 $W=0.15
RgK172 4#19 4#20 34.134449 $L=0.1645 $W=0.27
RgK173 MX72/M0#g 4#21 122.151299 $L=0.38 $W=0.15
RgK174 4#21 4#22 34.134449 $L=0.1645 $W=0.27
RfK175 4#24 4#25 7.905882 $L=0.105 $W=0.17
RfK176 4#26 4#28 3.764706 $L=0.05 $W=0.17
RfK177 4#29 4#30 152.470596 $L=2.025 $W=0.17
RfK178 4#31 4#32 16.188236 $L=0.215 $W=0.17
RfK179 4#33 4#34 48.564705 $L=0.645 $W=0.17
RfK180 4#34 4#35 80.941177 $L=1.075 $W=0.17
RfK181 4#35 4#36 120.847061 $L=1.605 $W=0.17
ReK182 4#37 4#38 0.239130 $L=0.44 $W=0.23
ReK183 4#38 4#39 0.739130 $L=1.36 $W=0.23
ReK184 4#39 4#40 0.239130 $L=0.44 $W=0.23
ReK185 4#41 4#42 0.739130 $L=1.36 $W=0.23
RhK186 MX64/M0#d 4#28 15.000000 $A=0.0289
Rh_2_K187 MX54/M0#d 4#24 15.000000 $A=0.0289
RjK188 4#25 4#37 152.000000 $A=0.0289
RjK189 4#29 4#38 152.000000 $A=0.0289
RjK190 4#35 4#39 152.000000 $A=0.0289
RjK191 4#26 4#40 152.000000 $A=0.0289
RjK192 4#31 4#41 152.000000 $A=0.0289
RjK193 4#33 4#42 152.000000 $A=0.0289
RiK194 4#16 4#30 15.000000 $A=0.0289
RiK195 4#22 4#32 15.000000 $A=0.0289
RiK196 4#20 4#34 15.000000 $A=0.0289
RiK197 4#18 4#36 15.000000 $A=0.0289
RmwK198 MX71/M0#g 4 0.001000 $W=1000000
*
*|NET 38 1.4208e-16
*|I (MX87/M0#d MX87/M0 d X 0 5.2195 3.1950)
*|I (MX72/M0#s MX72/M0 s X 0 4.9405 3.1950)
*|S (38 5.0800 3.2350)
CQ1 38 VSS 5.02376e-18
RmwQ290 MX87/M0#d 38 0.001000 $W=1000000
RmwQ291 MX72/M0#s 38 0.001000 $W=1000000
*
*|NET 46 9.70821e-17
*|I (MX88/M0#s MX88/M0 s X 0 6.5995 0.8000)
*|I (MX86/M0#s MX86/M0 s X 0 6.3205 0.8000)
*|S (46 6.4600 0.8000)
CQ2 46 VSS 1.31561e-17
CQ3 46 VSS#6 6.01853e-18
CQ4 46 MX88/M0#d 1.97244e-17
CQ5 46 VSS#26 5.92485e-18
RmwQ292 MX88/M0#s 46 0.001000 $W=1000000
RmwQ293 MX86/M0#s 46 0.001000 $W=1000000
*
*|NET 5 1.39066e-15
*|I (MX84/M0#s MX84/M0 s X 0 4.3595 0.8000)
*|I (MX83/M0#g MX83/M0 g X 0 2.1950 0.8000)
*|I (MX60/M0#d MX60/M0 d X 0 4.0805 0.8000)
*|I (MX70/M0#d MX70/M0 d X 0 4.0805 3.1950)
*|I (MX69/M0#g MX69/M0 g X 0 2.1950 3.1950)
*|I (MX58/M0#s MX58/M0 s X 0 4.3595 3.1950)
*|S (5 2.1950 3.1950)
*|S (5#8 2.2350 1.6300)
*|S (5#9 2.2350 1.4650)
*|S (5#11 4.2200 3.1950)
*|S (5#12 4.2200 3.0900)
*|S (5#13 4.2200 0.8500)
*|S (5#15 4.2200 0.8000)
*|S (5#16 4.2200 1.6300)
*|S (5#17 2.2350 1.6300)
*|S (5#18 4.2200 3.0900)
*|S (5#19 4.2200 1.6300)
*|S (5#20 4.2200 0.8500)
CL1 MX83/M0#g VSS 3.36424e-17
CL2 MX84/M0#s VSS 5.31582e-18
CL3 5#20 VSS 6.28787e-18
CL4 5#19 VSS 4.05538e-18
CL5 5#18 VSS 8.5674e-18
CL6 5#17 VSS 3.45419e-17
CL7 5#16 VSS 2.29667e-17
CL8 5#12 VSS 6.21096e-18
CL9 5 VSS 6.31092e-18
CL10 5#19 6#18 3.87008e-18
CL11 5#16 6#20 3.64395e-18
CL12 MX84/M0#s 6#21 3.52588e-18
CL13 5#20 MX84/M0#d 3.52588e-18
CL14 5#12 6#19 3.48683e-18
CL15 5#12 6#13 2.32313e-17
CL16 5#20 6#21 5.28576e-17
CL17 5#19 6#20 1.09713e-16
CL18 MX84/M0#s MX84/M0#d 1.89122e-17
CL19 5#18 6#19 8.97571e-17
CL20 5#16 6#18 1.37654e-17
CL21 5#20 MX64/M0#s 6.50864e-18
CL22 MX84/M0#s VSS#4 6.01954e-18
CL23 MX84/M0#s VSS#26 5.3592e-18
CL24 MX83/M0#g VSS#16 4.87612e-18
CL25 MX83/M0#g VSS#26 4.8201e-18
CL26 5#20 VSS#4 4.60773e-18
CL27 5#17 VSS#26 3.53062e-18
CL28 MX84/M0#s MX64/M0#s 2.02979e-17
CL29 5#20 VSS#26 2.07771e-17
RgL199 5 5#8 479.322205 $L=1.565 $W=0.15
RgL200 5#8 5#9 34.134449 $L=0.1645 $W=0.27
RgL201 5#9 MX83/M0#g 213.731293 $L=0.665 $W=0.15
RfL202 5#11 5#12 7.905882 $L=0.105 $W=0.17
RfL203 5#13 5#15 3.764706 $L=0.05 $W=0.17
RfL204 5#16 5#17 149.458832 $L=1.985 $W=0.17
ReL205 5#18 5#19 0.793478 $L=1.46 $W=0.23
ReL206 5#19 5#20 0.423913 $L=0.78 $W=0.23
RhL207 MX84/M0#s 5#15 15.000000 $A=0.0289
Rh_2_L208 MX70/M0#d 5#11 15.000000 $A=0.0289
RjL209 5#12 5#18 152.000000 $A=0.0289
RjL210 5#16 5#19 152.000000 $A=0.0289
RjL211 5#13 5#20 152.000000 $A=0.0289
RiL212 5#8 5#17 15.000000 $A=0.0289
RmwL213 MX60/M0#d MX84/M0#s 0.001000 $W=1000000
RmwL214 MX69/M0#g 5 0.001000 $W=1000000
RmwL215 MX58/M0#s MX70/M0#d 0.001000 $W=1000000
*
*|NET VDD 2.32157e-15
*|P (VDD X 0 4.8250 4.1450)
*|I (MX87/M0#s MX87/M0 s X 0 5.3705 3.1950)
*|I (MX85/M0#s MX85/M0 s X 0 6.7505 3.1950)
*|I (MX70/M0#s MX70/M0 s X 0 3.9295 3.1950)
*|I (MX69/M0#s MX69/M0 s X 0 2.2705 3.1950)
*|I (MX68/M0#s MX68/M0 s X 0 0.8295 3.1950)
*|I (MX56/M0#s MX56/M0 s X 0 8.1305 3.1550)
*|I (MX55/M0#s MX55/M0 s X 0 7.0295 3.1950)
*|I (MX54/M0#s MX54/M0 s X 0 3.6505 3.1950)
*|I (MX53/M0#s MX53/M0 s X 0 2.5495 3.1950)
*|I (MX52/M0#s MX52/M0 s X 0 0.5505 3.1950)
*|I (MX51/M0#s MX51/M0 s X 0 8.4095 3.1550)
*|I (MX50/M0#s MX50/M0 s X 0 6.1695 3.1950)
*|S (VDD#1 9.1995 4.1400)
*|S (VDD#2 8.2700 4.1400)
*|S (VDD#3 8.0500 4.1400)
*|S (VDD#4 8.0500 4.1400)
*|S (VDD#6 6.8900 4.1400)
*|S (VDD#7 6.0300 4.1400)
*|S (VDD#8 5.5100 4.1400)
*|S (VDD#9 3.6800 4.1400)
*|S (VDD#12 8.2700 3.1550)
*|S (VDD#14 6.8900 3.1950)
*|S (VDD#16 6.0300 3.1950)
*|S (VDD#18 5.5100 3.1950)
*|S (VDD#20 3.7900 3.1950)
*|S (VDD#21 2.4100 4.1400)
*|S (VDD#23 2.4100 3.1950)
*|S (VDD#24 0.6900 4.1400)
*|S (VDD#26 0.6900 3.1950)
*|S (VDD#27 0.0000 4.1400)
*|S (VDD#28 8.0500 4.1400)
*|S (VDD#29 3.6800 4.1400)
CF1 MX50/M0#s VSS 4.09079e-18
CF2 MX56/M0#s VSS 1.56022e-18
CF3 MX68/M0#s VSS 1.33966e-18
CF4 MX69/M0#s VSS 1.84902e-18
CF5 MX70/M0#s VSS 1.71363e-18
CF6 MX85/M0#s VSS 1.62197e-18
CF7 MX87/M0#s VSS 1.63687e-18
CF8 VDD#29 VSS 1.5806e-17
CF9 VDD#28 VSS 4.59038e-18
CF10 VDD#24 VSS 4.6556e-18
CF11 VDD#21 VSS 5.29733e-18
CF12 VDD#8 VSS 3.05264e-18
CF13 VDD#6 VSS 1.07039e-18
CF14 VDD#1 VSS 1.7106e-18
CF15 VDD#27 VSS 1.90573e-18
CF16 VDD#4 VSS 5.54143e-18
CF17 VDD VSS 5.33017e-18
CF18 VDD 38 6.15697e-18
CF19 VDD#8 38 6.91908e-18
CF20 MX87/M0#s 38 3.33573e-17
CF21 MX70/M0#s 38 1.15952e-18
CF22 VDD#29 38 6.45508e-18
CF23 MX69/M0#s 30 8.01116e-19
CF24 VDD 30 4.88461e-18
CF25 VDD#24 30 6.93348e-18
CF26 MX68/M0#s 30 2.78806e-17
CF27 VDD#29 30 7.49184e-18
CF28 VDD#28 26#11 5.5558e-18
CF29 VDD#28 26 5.21596e-18
CF30 VDD#4 26 3.89698e-18
CF31 VDD 26#20 2.9687e-18
CF32 MX56/M0#s 26#19 2.62224e-18
CF33 VDD 26#11 1.01514e-17
CF34 MX85/M0#s 26#11 2.9136e-17
CF35 VDD#6 26#11 6.94364e-18
CF36 MX56/M0#s 26 1.02568e-17
CF37 MX85/M0#s 26#19 1.07817e-17
CF38 VDD#6 26#19 6.13167e-18
CF39 VDD 26#19 1.34419e-17
CF40 MX56/M0#s 26#17 6.60904e-18
CF41 VDD#28 26#19 2.23212e-17
CF42 VDD 26 1.2141e-17
CF43 VDD 7#34 7.42706e-18
CF44 MX87/M0#s 7#41 5.31654e-18
CF45 VDD#4 MX56/M0#g 5.21917e-18
CF46 VDD#29 7#34 5.21788e-18
CF47 VDD#28 MX56/M0#g 5.21596e-18
CF48 VDD#29 7 4.96661e-18
CF49 VDD#6 MX55/M0#g 3.88469e-18
CF50 VDD#8 7 3.64599e-18
CF51 VDD 7#44 3.54604e-18
CF52 VDD#28 7#37 3.52026e-18
CF53 VDD#7 7#41 3.06583e-18
CF54 VDD#6 7#41 3.05276e-18
CF55 VDD#7 7#34 2.76397e-18
CF56 VDD#6 7#34 2.73701e-18
CF57 MX50/M0#s 7 2.58287e-18
CF58 VDD#28 MX55/M0#g 2.58264e-18
CF59 MX85/M0#s 7#41 1.21276e-17
CF60 MX85/M0#s 7#34 2.9136e-17
CF61 VDD#29 7#41 2.21608e-17
CF62 MX85/M0#s MX55/M0#g 8.17266e-18
CF63 VDD MX55/M0#g 1.08824e-17
CF64 VDD MX56/M0#g 1.32667e-17
CF65 VDD 7 1.25924e-17
CF66 MX50/M0#s 7#34 2.9136e-17
CF67 MX50/M0#s 7#41 1.21704e-17
CF68 MX87/M0#s 7 8.95937e-18
CF69 MX56/M0#s MX56/M0#g 9.23577e-18
CF70 VDD 7#41 1.42604e-17
CF71 VDD#29 6#13 5.44455e-18
CF72 VDD#29 6 4.96661e-18
CF73 VDD#7 6 3.87142e-18
CF74 MX87/M0#s 6#19 2.92506e-18
CF75 VDD#4 6#13 2.89045e-18
CF76 MX87/M0#s 6 2.58287e-18
CF77 MX50/M0#s 6#19 1.97841e-18
CF78 VDD#8 6#13 1.89278e-18
CF79 VDD 6#19 1.39545e-17
CF80 MX50/M0#s 6 8.95937e-18
CF81 VDD 6 1.15921e-17
CF82 VDD#29 6#19 1.38546e-17
CF83 VDD#29 5#12 5.46217e-18
CF84 VDD 5#18 5.3098e-18
CF85 VDD#4 5#12 4.80188e-18
CF86 VDD#21 5 3.36646e-18
CF87 MX70/M0#s 5#18 3.29335e-18
CF88 MX69/M0#s 5 7.73961e-18
CF89 MX70/M0#s 5#12 2.40521e-17
CF90 VDD#29 5#18 1.38546e-17
CF91 VDD 5 7.29696e-18
CF92 MX69/M0#s 4#30 8.37229e-18
CF93 VDD 4#32 6.74797e-18
CF94 VDD#29 MX72/M0#g 4.96661e-18
CF95 VDD#29 4 4.96661e-18
CF96 VDD#4 4#25 4.80328e-18
CF97 VDD#24 4 4.50865e-18
CF98 VDD#8 MX72/M0#g 4.50865e-18
CF99 VDD#29 4#30 4.29478e-18
CF100 VDD#29 4#25 4.04362e-18
CF101 MX70/M0#s 4#37 3.36932e-18
CF102 VDD 4#37 2.68034e-18
CF103 VDD#8 4#41 2.27999e-18
CF104 VDD#29 4#32 2.26391e-18
CF105 VDD#29 4#31 1.95251e-18
CF106 VDD#21 4#30 1.70442e-18
CF107 VDD#4 4#29 1.70359e-18
CF108 MX69/M0#s 4#29 1.94015e-17
CF109 VDD#29 4#41 1.03936e-17
CF110 VDD 4#29 2.25954e-17
CF111 MX70/M0#s 4#25 2.39539e-17
CF112 VDD 4 1.58259e-17
CF113 VDD 4#41 1.05065e-17
CF114 VDD MX72/M0#g 1.58259e-17
CF115 VDD 4#31 1.07652e-17
CF116 VDD 4#38 1.86032e-17
CF117 VDD 4#30 2.75126e-17
CF118 VDD#21 3#3 4.80328e-18
CF119 MX69/M0#s 3#3 2.31287e-17
CF120 VDD#29 3#6 4.03058e-18
CF121 MX69/M0#s 3#6 2.36867e-17
CF122 VDD#21 3#6 4.80327e-18
CF123 MX69/M0#s 3#9 1.44631e-17
CF124 VDD#29 3#3 4.04362e-18
CF125 MX69/M0#s 3#8 1.44124e-17
CF126 MX70/M0#s 2 7.75523e-18
CF127 VDD 2#16 6.73027e-18
CF128 VDD#29 2 4.96661e-18
CF129 VDD#4 2 4.50865e-18
CF130 MX68/M0#s 2#19 4.05179e-18
CF131 VDD#29 2#12 4.03058e-18
CF132 VDD 2#17 3.18662e-18
CF133 VDD#24 2#19 2.92852e-18
CF134 VDD#21 2#12 2.87264e-18
CF135 MX87/M0#s 2#18 2.80105e-18
CF136 VDD#4 2#18 1.21288e-17
CF137 MX69/M0#s 2#19 3.23124e-17
CF138 VDD#21 2#19 1.48766e-17
CF139 VDD#29 2#19 1.0131e-16
CF140 VDD#29 2#18 7.9923e-17
CF141 VDD 2 1.58259e-17
CF142 MX70/M0#s 2#17 2.22736e-17
CF143 VDD 2#19 3.91303e-17
CF144 VDD 2#18 2.68309e-17
CF145 MX70/M0#s 2#18 4.11559e-17
CF146 MX70/M0#s MX54/M0#g 8.04569e-18
CF147 VDD MX54/M0#g 6.37252e-18
CF148 MX68/M0#s 1#41 5.90017e-18
CF149 VDD#29 1#33 5.75677e-18
CF150 VDD#4 MX54/M0#g 5.18494e-18
CF151 VDD#4 MX58/M0#g 5.18494e-18
CF152 VDD#29 MX58/M0#g 4.96661e-18
CF153 VDD#21 1 4.50865e-18
CF154 VDD#29 1#40 3.84737e-18
CF155 VDD#27 1#33 3.69232e-18
CF156 VDD#29 1 2.40612e-18
CF157 VDD#29 MX54/M0#g 2.40612e-18
CF158 VDD#29 1#41 1.38546e-17
CF159 VDD 1#33 8.35827e-18
CF160 VDD 1#42 2.56993e-17
CF161 VDD 1#41 3.21419e-17
CF162 VDD MX58/M0#g 1.2862e-17
CF163 VDD 1 9.33643e-18
CF164 MX68/M0#s 1#33 2.57455e-17
RfF47 VDD#1 VDD#2 47.315212 $L=0.9295 $W=0.25
RfF48 VDD#2 VDD#3 10.988811 $L=0.22 $W=0.25
RfF49 VDD#3 VDD#6 59.116810 $L=1.16 $W=0.25
RfF50 VDD#6 VDD#7 43.481621 $L=0.86 $W=0.25
RfF51 VDD#7 VDD#8 26.073622 $L=0.52 $W=0.25
RfF52 VDD#8 VDD#9 93.420807 $L=1.83 $W=0.25
RfF53 VDD#2 VDD#12 67.556854 $L=0.985 $W=0.17
RfF54 VDD#6 VDD#14 64.545090 $L=0.945 $W=0.17
RfF55 VDD#7 VDD#16 64.545090 $L=0.945 $W=0.17
RfF56 VDD#8 VDD#18 64.545090 $L=0.945 $W=0.17
RfF57 VDD#9 VDD#20 68.141174 $L=0.945 $W=0.17
RfF58 VDD#9 VDD#21 64.748810 $L=1.27 $W=0.25
RfF59 VDD#21 VDD#23 64.545090 $L=0.945 $W=0.17
RfF60 VDD#21 VDD#24 87.513618 $L=1.72 $W=0.25
RfF61 VDD#24 VDD#26 64.545090 $L=0.945 $W=0.17
RfF62 VDD#24 VDD#27 35.052811 $L=0.69 $W=0.25
ReF63 VDD#28 VDD 1.007812 $L=3.225 $W=0.4
ReF64 VDD VDD#29 0.357812 $L=1.145 $W=0.4
Rh_1_F65 VDD#4 VDD#3 3.750000 $A=0.1156
Rh_1_F66 VDD#4 VDD#9 1.000000 $A=0.4335
Rh_2_F67 MX56/M0#s VDD#12 15.000000 $A=0.0289
Rh_2_F68 MX85/M0#s VDD#14 15.000000 $A=0.0289
Rh_2_F69 MX50/M0#s VDD#16 15.000000 $A=0.0289
Rh_2_F70 MX87/M0#s VDD#18 15.000000 $A=0.0289
Rh_2_F71 MX70/M0#s VDD#20 15.000000 $A=0.0289
Rh_2_F72 MX69/M0#s VDD#23 15.000000 $A=0.0289
Rh_2_F73 MX68/M0#s VDD#26 15.000000 $A=0.0289
RjF74 VDD#3 VDD#28 38.000000 $A=0.1156
RjF75 VDD#9 VDD#29 10.133333 $A=0.4335
RmwF76 MX55/M0#s MX85/M0#s 0.001000 $W=1000000
RmwF77 MX54/M0#s MX70/M0#s 0.001000 $W=1000000
RmwF78 MX53/M0#s MX69/M0#s 0.001000 $W=1000000
RmwF79 MX52/M0#s MX68/M0#s 0.001000 $W=1000000
RmwF80 MX51/M0#s MX56/M0#s 0.001000 $W=1000000
*
*|NET 6 1.28175e-15
*|I (MX86/M0#g MX86/M0 g X 0 6.2450 0.8000)
*|I (MX84/M0#d MX84/M0 d X 0 4.5105 0.8000)
*|I (MX67/M0#d MX67/M0 d X 0 4.7895 0.8000)
*|I (MX72/M0#d MX72/M0 d X 0 4.7895 3.1950)
*|I (MX58/M0#d MX58/M0 d X 0 4.5105 3.1950)
*|I (MX50/M0#g MX50/M0 g X 0 6.2450 3.1950)
*|S (6 6.2450 3.1950)
*|S (6#8 6.1850 1.7945)
*|S (6#9 6.1850 1.6300)
*|S (6#10 6.1850 1.4650)
*|S (6#12 4.6500 3.1950)
*|S (6#13 4.6500 3.0900)
*|S (6#14 4.6500 0.8500)
*|S (6#16 4.6500 0.8000)
*|S (6#17 6.1850 1.6300)
*|S (6#18 4.6500 1.6300)
*|S (6#19 4.6500 3.0900)
*|S (6#20 4.6500 1.6300)
*|S (6#21 4.6500 0.8500)
CM1 MX84/M0#d VSS 3.87194e-18
CM2 MX86/M0#g VSS 2.4283e-17
CM3 6#21 VSS 1.39385e-17
CM4 6#20 VSS 3.28409e-18
CM5 6#19 VSS 1.18468e-17
CM6 6#17 VSS 3.30509e-17
CM7 6#18 VSS 1.77353e-17
CM8 6#13 VSS 7.0274e-18
CM9 6 VSS 3.34006e-18
CM10 6#13 38 2.64474e-17
CM11 6#19 38 6.74933e-18
CM12 6#21 36 5.82736e-18
CM13 MX84/M0#d 36 1.93352e-17
CM14 6#18 MX62/M0#g 5.29997e-18
CM15 MX86/M0#g 7#44 3.2761e-18
CM16 6 7#41 2.83562e-18
CM17 6#19 7#34 2.6e-18
CM18 6#13 7#41 1.54084e-18
CM19 6#13 7 1.53964e-18
CM20 6 7#34 9.02687e-18
CM21 6#21 7#44 7.49681e-18
CM22 6#17 7#44 9.35522e-18
CM23 6#17 7#42 2.13955e-17
CM24 6#18 7#40 2.39464e-17
CM25 MX86/M0#g MX86/M0#d 7.15086e-18
CM26 6#17 7#40 4.21073e-17
CM27 6#17 7#39 4.33959e-17
CM28 6#17 MX86/M0#d 8.68712e-18
CM29 6#17 VSS#26 6.11199e-18
CM30 MX84/M0#d VSS#26 5.34191e-18
CM31 MX86/M0#g VSS#6 3.71628e-18
CM32 MX84/M0#d VSS#4 3.62342e-18
CM33 6#18 VSS#26 3.61409e-18
CM34 MX84/M0#d VSS#7 3.60004e-18
CM35 6#21 VSS#4 2.30386e-18
CM36 MX86/M0#g MX62/M0#s 2.28093e-18
CM37 6#21 VSS#7 2.27909e-18
CM38 MX86/M0#g VSS#7 2.01139e-18
CM39 6#17 MX62/M0#s 8.04214e-18
CM40 6#21 VSS#26 2.07771e-17
RgM216 6 6#8 449.911285 $L=1.4 $W=0.15
RgM217 6#8 6#9 38.857975 $L=0.1645 $W=0.27
RgM218 6#9 6#10 29.410927 $L=0.1645 $W=0.27
RgM219 6#10 MX86/M0#g 213.731293 $L=0.665 $W=0.15
RfM220 6#12 6#13 7.905882 $L=0.105 $W=0.17
RfM221 6#14 6#16 3.764706 $L=0.05 $W=0.17
RfM222 6#17 6#18 115.576462 $L=1.535 $W=0.17
ReM223 6#19 6#20 0.793478 $L=1.46 $W=0.23
ReM224 6#20 6#21 0.423913 $L=0.78 $W=0.23
RhM225 MX84/M0#d 6#16 15.000000 $A=0.0289
Rh_2_M226 MX72/M0#d 6#12 15.000000 $A=0.0289
RjM227 6#13 6#19 152.000000 $A=0.0289
RjM228 6#18 6#20 152.000000 $A=0.0289
RjM229 6#14 6#21 152.000000 $A=0.0289
RiM230 6#9 6#17 15.000000 $A=0.0289
RmwM231 MX67/M0#d MX84/M0#d 0.001000 $W=1000000
RmwM232 MX58/M0#d MX72/M0#d 0.001000 $W=1000000
RmwM233 MX50/M0#g 6 0.001000 $W=1000000
*
*|NET RN 1.47895e-15
*|P (RN X 0 6.9150 2.0550)
*|I (MX88/M0#g MX88/M0 g X 0 6.6750 0.8000)
*|I (MX74/M0#g MX74/M0 g X 0 2.6250 0.8000)
*|I (MX85/M0#g MX85/M0 g X 0 6.6750 3.1950)
*|I (MX53/M0#g MX53/M0 g X 0 2.6250 3.1950)
*|S (RN#15 2.6400 2.8295)
*|S (RN#16 2.6400 2.6800)
*|S (RN#17 2.7150 2.3100)
*|S (RN#18 2.7150 2.1450)
*|S (RN#19 2.6400 1.2595)
*|S (RN#20 2.6400 1.1100)
*|S (RN#21 6.6750 2.3100)
*|S (RN#22 6.6750 2.1450)
*|S (RN#23 6.9000 2.3100)
*|S (RN#24 6.6750 2.3100)
*|S (RN#25 2.7150 2.3100)
*|S (RN#26 6.9000 2.3100)
CE1 MX53/M0#g VSS 6.89737e-18
CE2 MX85/M0#g VSS 6.51029e-18
CE3 MX74/M0#g VSS 3.11265e-17
CE4 MX88/M0#g VSS 2.39041e-17
CE5 RN#25 VSS 8.9161e-18
CE6 RN#24 VSS 5.73141e-18
CE7 RN#23 VSS 6.42179e-18
CE8 RN VSS 1.47303e-17
CE9 RN#23 26#20 4.64246e-18
CE10 RN#23 26#19 3.6736e-18
CE11 RN 26#18 7.4976e-18
CE12 RN 26#20 1.02255e-16
CE13 RN 26#19 4.4645e-17
CE14 RN 7#39 6.73357e-18
CE15 RN#24 7 3.74042e-18
CE16 MX88/M0#g 7#39 3.73573e-18
CE17 RN#23 MX55/M0#g 2.69322e-18
CE18 MX85/M0#g 7#41 2.39913e-18
CE19 RN#24 7#44 1.83984e-18
CE20 RN 7#42 1.17296e-16
CE21 RN#24 7#39 7.00259e-17
CE22 RN 7#41 2.38964e-17
CE23 RN#24 7#34 7.99929e-18
CE24 MX85/M0#g 7#34 8.70099e-18
CE25 RN#24 7#40 6.49248e-17
CE26 RN#24 7#42 3.42278e-17
CE27 RN#23 7#38 2.46288e-17
CE28 RN 7#38 1.59463e-17
CE29 RN#24 6 5.80078e-18
CE30 RN#24 6#20 4.58285e-18
CE31 RN#25 6#13 4.29605e-18
CE32 RN#25 6#19 7.49307e-18
CE33 RN#24 6#18 7.65181e-18
CE34 RN#25 6#20 6.9415e-18
CE35 RN#25 5#19 1.49009e-17
CE36 RN#25 5#18 1.1349e-17
CE37 MX74/M0#g 4#35 4.29498e-18
CE38 MX74/M0#g 4#36 2.52197e-18
CE39 MX53/M0#g 4#25 1.94547e-18
CE40 RN#25 4#38 2.99409e-17
CE41 MX53/M0#g 4#29 7.5633e-18
CE42 RN#24 4#32 2.65499e-17
CE43 RN#25 4#29 8.48104e-17
CE44 RN#24 4#31 2.63068e-17
CE45 RN#24 4#41 2.8191e-17
CE46 MX53/M0#g 3#6 7.7877e-18
CE47 RN#25 3#8 3.96654e-18
CE48 MX53/M0#g 3#8 3.3573e-18
CE49 RN#25 2#17 2.33063e-17
CE50 RN#25 2#19 9.5141e-18
CE51 RN#25 2#16 2.68492e-17
CE52 RN#25 2#18 1.10024e-17
CE53 RN#24 1#37 1.42386e-17
CE54 RN#25 MX54/M0#g 7.76891e-18
CE55 RN#25 1#37 4.62329e-17
CE56 RN#25 MX58/M0#g 7.76891e-18
CE57 RN#25 1#38 1.23305e-16
CE58 MX88/M0#g MX88/M0#d 6.21439e-18
CE59 MX74/M0#g VSS#26 4.8201e-18
CE60 MX88/M0#g VSS#26 4.8201e-18
CE61 MX88/M0#g VSS#6 4.29097e-18
CE62 MX74/M0#g MX74/M0#s 8.30381e-18
CE63 RN MX88/M0#d 9.52037e-18
CE64 RN VSS#26 9.89329e-18
CE65 MX53/M0#g VDD 7.29696e-18
CE66 RN#24 MX50/M0#s 6.6489e-18
CE67 MX85/M0#g VDD#6 5.18494e-18
CE68 MX85/M0#g VDD#29 4.96661e-18
CE69 RN#23 MX85/M0#s 4.69787e-18
CE70 MX53/M0#g VDD#21 3.36646e-18
CE71 RN#25 VDD#29 2.50397e-18
CE72 RN#25 VDD 4.55727e-17
CE73 RN#24 VDD 4.80021e-17
CE74 RN#23 VDD 9.76454e-18
CE75 RN VDD#29 9.53681e-18
CE76 MX53/M0#g MX69/M0#s 8.1035e-18
CE77 RN MX85/M0#s 9.07729e-18
CE78 RN VDD 9.2371e-18
CE79 MX85/M0#g MX85/M0#s 7.72091e-18
CE80 MX85/M0#g VDD 1.2862e-17
CE81 RN#24 VDD#29 9.35476e-18
CE82 RN#24 MX87/M0#s 1.12088e-17
RgE31 MX53/M0#g RN#15 117.353607 $L=0.365 $W=0.15
RgE32 RN#15 RN#16 41.266922 $L=0.149 $W=0.18
RgE33 RN#16 RN#17 104.842880 $L=0.37 $W=0.15
RgE34 RN#17 RN#18 38.857975 $L=0.1645 $W=0.27
RgE35 RN#18 RN#19 284.491577 $L=0.885 $W=0.15
RgE36 RN#19 RN#20 41.266922 $L=0.149 $W=0.18
RgE37 RN#20 MX74/M0#g 167.276825 $L=0.31 $W=0.15
RgE38 MX85/M0#g RN#21 265.539062 $L=0.885 $W=0.15
RgE39 RN#21 RN#22 34.134449 $L=0.1645 $W=0.27