*
*|DSPF 1.5
*
*|DATE "Fri Feb 28 13:30:21 2025"
*|VENDOR "Cadence Design Systems"
*|PROGRAM "Cadence Quantus Extraction"
*|VERSION "22.1.0-p089 Linux 64 bit - (Thu Jan 19 11:47:08 PST 2023)"
*|DESIGN "DFFSX4_LP"
*|DIVIDER /
*|DELIMITER #
*|DeviceFingerDelim "@"
*|BUSBIT []
*|GLOBAL_TEMPERATURE 25
*|OPERATING_TEMPERATURE 25
** QRC_TECH_DIR /vols/wfo_devel/projects/reference_SKY130/tech/sky130_release_0.0.4/quantus/extraction/typical 
** HIERARCHICAL_SPLIT_PINS_DELIMITER '%'
** caps2d version: 10
*
.SUBCKT  DFFSX4_LP CK D Q QN SN VDD VSS
*
*Net Section
*
*|GROUND_NET VSS
*
*|NET SN 1.10515e-15
*|P (SN X 0 3.2350 2.0950)
*|I (MX79/M0#g MX79/M0 g X 0 3.5750 0.8000)
*|I (MX69/M0#g MX69/M0 g X 0 5.7250 0.8000)
*|I (MX65/M0#g MX65/M0 g X 0 5.7250 3.1950)
*|I (MX64/M0#g MX64/M0 g X 0 3.5750 3.1950)
*|S (SN#15 3.5150 2.4745)
*|S (SN#16 3.5150 2.3100)
*|S (SN#17 3.5150 2.1450)
*|S (SN#18 5.7850 2.4745)
*|S (SN#19 5.7850 2.3100)
*|S (SN#20 5.7850 2.1450)
*|S (SN#21 5.7850 2.3100)
*|S (SN#22 3.5150 2.3100)
*|S (SN#23 3.2250 2.3100)
*|S (SN#24 3.2250 2.3100)
CE1 MX64/M0#g VSS 5.12189e-18
CE2 MX65/M0#g VSS 5.71812e-18
CE3 MX69/M0#g VSS 2.44082e-17
CE4 MX79/M0#g VSS 2.83107e-17
CE5 SN#22 VSS 3.01815e-18
CE6 SN#21 VSS 6.77008e-18
CE7 SN#23 VSS 5.02331e-18
CE8 SN VSS 7.37474e-18
CE9 MX79/M0#g 11#33 4.27941e-18
CE10 MX79/M0#g 11#32 2.71186e-18
CE11 MX64/M0#g MX63/M0#d 2.55005e-18
CE12 SN#21 11#29 2.63068e-17
CE13 SN#21 11#39 2.86044e-17
CE14 SN#21 11#30 2.65499e-17
CE15 SN#23 11#37 8.92785e-18
CE16 SN 11#38 5.95134e-17
CE17 SN 11#37 9.75687e-17
CE18 SN 11#33 1.2541e-17
CE19 SN 11#26 8.16329e-18
CE20 SN#21 6 3.74042e-18
CE21 SN#21 6#59 2.33623e-18
CE22 MX65/M0#g 5#6 7.80643e-18
CE23 MX65/M0#g 5#8 3.29845e-18
CE24 SN#21 5#6 6.38992e-18
CE25 SN#21 5#8 8.59662e-18
CE26 SN#21 6#58 7.90696e-17
CE27 SN#21 5#9 3.44249e-18
CE28 SN#21 6#60 7.41911e-18
CE29 SN#21 4#29 3.57107e-18
CE30 SN#22 4#23 3.32944e-18
CE31 MX69/M0#g 4#27 3.25613e-18
CE32 SN 4#28 3.2381e-18
CE33 SN#21 4#28 6.35496e-18
CE34 SN#22 4#30 5.77513e-18
CE35 SN#21 4#30 5.91158e-18
CE36 SN#22 4#29 6.15955e-18
CE37 SN MX64/M0#d 4.66714e-18
CE38 SN#22 3#17 4.40345e-18
CE39 SN#22 MX64/M0#d 3.51237e-18
CE40 MX64/M0#g 3#12 3.08302e-18
CE41 SN#23 MX64/M0#d 2.92155e-18
CE42 SN#22 3#23 2.24173e-18
CE43 MX79/M0#g 3#23 1.86282e-18
CE44 SN 3#10 1.7347e-18
CE45 MX64/M0#g MX64/M0#d 5.88864e-18
CE46 SN 3#23 2.97695e-17
CE47 SN 3#22 1.08795e-17
CE48 SN#22 3#22 2.76057e-17
CE49 SN 2#17 4.67275e-18
CE50 SN#23 2#18 3.82497e-18
CE51 MX64/M0#g 2#18 3.34926e-18
CE52 SN#22 2#18 1.26878e-17
CE53 SN#22 2#16 2.68492e-17
CE54 SN#22 2#17 2.33063e-17
CE55 SN 2#18 5.04841e-17
CE56 SN 1#41 3.02322e-17
CE57 SN#23 1#41 2.82931e-17
CE58 SN#22 1#40 7.56784e-17
CE59 SN#22 MX91/M0#g 7.76891e-18
CE60 SN#22 1#41 2.6741e-17
CE61 SN#21 1#40 1.76002e-17
CE62 MX69/M0#g VSS#42 4.8201e-18
CE63 MX69/M0#g VSS#12 4.27181e-18
CE64 MX79/M0#g VSS#6 3.62458e-18
CE65 MX79/M0#g VSS#42 2.91292e-18
CE66 MX69/M0#g MX80/M0#s 2.46411e-18
CE67 MX79/M0#g MX79/M0#s 8.25595e-18
CE68 MX69/M0#g MX69/M0#s 8.30381e-18
CE69 MX64/M0#g VDD#6 5.18494e-18
CE70 MX65/M0#g VDD#12 3.87142e-18
CE71 MX65/M0#g MX89/M0#s 2.46992e-18
CE72 MX64/M0#g VDD#41 2.43834e-18
CE73 SN#22 VDD#41 2.17836e-18
CE74 SN#23 VDD 1.38415e-17
CE75 SN#21 MX87/M0#s 1.02853e-17
CE76 MX65/M0#g MX87/M0#s 8.13756e-18
CE77 MX64/M0#g VDD 6.37252e-18
CE78 MX64/M0#g MX92/M0#s 8.24194e-18
CE79 SN#22 VDD 2.36434e-17
CE80 SN#21 VDD 3.30987e-17
CE81 MX65/M0#g VDD 9.65797e-18
CE82 SN VDD 7.86287e-18
RgE62 MX64/M0#g SN#15 231.404633 $L=0.72 $W=0.15
RgE63 SN#15 SN#16 38.857975 $L=0.1645 $W=0.27
RgE64 SN#16 SN#17 29.410927 $L=0.1645 $W=0.27
RgE65 SN#17 MX79/M0#g 432.237946 $L=1.345 $W=0.15
RgE66 MX65/M0#g SN#18 231.404633 $L=0.72 $W=0.15
RgE67 SN#18 SN#19 38.857975 $L=0.1645 $W=0.27
RgE68 SN#19 SN#20 29.410927 $L=0.1645 $W=0.27
RgE69 SN#20 MX69/M0#g 432.237946 $L=1.345 $W=0.15
RfE70 SN#21 SN#22 170.917648 $L=2.27 $W=0.17
RfE71 SN#22 SN#23 21.835295 $L=0.29 $W=0.17
ReE72 SN SN#24 0.103365 $L=0.215 $W=0.26
RjE73 SN#23 SN#24 152.000000 $A=0.0289
RiE74 SN#19 SN#21 15.000000 $A=0.0289
RiE75 SN#16 SN#22 15.000000 $A=0.0289
*
*|NET 33 1.18087e-16
*|I (MX78/M0#s MX78/M0 s X 0 1.2595 0.8000)
*|I (MX67/M0#d MX67/M0 d X 0 0.9805 0.8000)
*|S (33 1.1200 0.8000)
CO1 33 VSS 7.86868e-18
CO2 33 MX70/M0#s 1.94001e-17
CO3 33 VSS#42 7.27607e-18
CO4 33 VSS#17 6.01954e-18
RmwO363 MX78/M0#s 33 0.001000 $W=1000000
RmwO364 MX67/M0#d 33 0.001000 $W=1000000
*
*|NET 35 1.43263e-16
*|I (MX75/M0#s MX75/M0 s X 0 1.2595 3.1950)
*|I (MM0#d MM0 d X 0 0.9805 3.1950)
*|S (35 1.1200 3.2350)
CO5 35 VSS 2.67709e-17
RmwO365 MX75/M0#s 35 0.001000 $W=1000000
RmwO366 MM0#d 35 0.001000 $W=1000000
*
*|NET 37 1.10193e-16
*|I (MX77/M0#d MX77/M0 d X 0 2.1195 0.8000)
*|I (MX72/M0#s MX72/M0 s X 0 1.8405 0.8000)
*|S (37 1.9800 0.8000)
CO6 37 VSS 5.85894e-18
CO7 37 VSS#16 6.01954e-18
CO8 37 VSS#42 7.48732e-18
CO9 37 MX77/M0#s 2.02979e-17
RmwO367 MX77/M0#d 37 0.001000 $W=1000000
RmwO368 MX72/M0#s 37 0.001000 $W=1000000
*
*|NET 39 1.38754e-16
*|I (MX90/M0#s MX90/M0 s X 0 1.8405 3.1950)
*|I (MX88/M0#d MX88/M0 d X 0 2.1195 3.1950)
*|S (39 1.9800 3.2350)
CO10 39 VSS 2.3198e-17
RmwO369 MX90/M0#s 39 0.001000 $W=1000000
RmwO370 MX88/M0#d 39 0.001000 $W=1000000
*
*|NET 41 1.17945e-16
*|I (MX93/M0#s MX93/M0 s X 0 3.9295 0.8000)
*|I (MX79/M0#d MX79/M0 d X 0 3.6505 0.8000)
*|S (41 3.7900 0.8000)
CO11 41 VSS 1.69363e-17
CO12 41 VSS#42 5.3592e-18
CO13 41 MX79/M0#s 1.91749e-17
CO14 41 VSS#6 6.01954e-18
RmwO371 MX93/M0#s 41 0.001000 $W=1000000
RmwO372 MX79/M0#d 41 0.001000 $W=1000000
*
*|NET 43 1.08812e-16
*|I (MX76/M0#d MX76/M0 d X 0 5.2195 0.8000)
*|I (MX74/M0#s MX74/M0 s X 0 4.9405 0.8000)
*|S (43 5.0800 0.8000)
CO15 43 VSS 1.7342e-17
CO16 43 45 2.05659e-17
CO17 43 VSS#12 7.24683e-18
CO18 43 VSS#42 6.02184e-18
RmwO373 MX76/M0#d 43 0.001000 $W=1000000
RmwO374 MX74/M0#s 43 0.001000 $W=1000000
*
*|NET 5 4.01312e-16
*|I (MX87/M0#d MX87/M0 d X 0 5.2195 3.1950)
*|I (MX65/M0#d MX65/M0 d X 0 5.8005 3.1950)
*|I (MM1#d MM1 d X 0 4.9405 3.1950)
*|S (5 5.0800 3.1950)
*|S (5#2 5.0800 3.1950)
*|S (5#3 5.0800 3.0900)
*|S (5#5 5.9400 3.1950)
*|S (5#6 5.9400 3.0900)
*|S (5#7 5.9400 3.0900)
*|S (5#8 5.8250 3.0900)
*|S (5#9 5.1945 3.0900)
*|S (5#10 5.0800 3.0900)
CL1 5#9 VSS 1.27004e-18
CL2 5#8 VSS 5.03474e-18
CL3 5#3 VSS 5.66015e-18
CL4 5#6 VSS 3.3345e-18
CL5 5#9 MM1#g 1.22972e-18
CL6 5#9 11#29 2.68302e-18
CL7 5#3 11#39 4.58296e-18
CL8 5#3 MM1#g 6.79552e-18
CL9 5#9 11#39 3.0925e-17
CL10 5#3 11#29 2.14542e-17
CL11 5#6 6 1.35509e-18
CL12 5#9 6#58 1.21068e-18
CL13 5#9 6 3.1198e-18
CL14 5#3 6 6.79552e-18
CL15 5#8 6#58 4.97256e-18
CL16 5#8 6#59 1.48985e-17
CL17 5#6 6#58 2.98784e-18
CL18 5#6 6#59 2.54287e-18
RfL265 5#2 5#3 7.905882 $L=0.105 $W=0.17
RfL266 5#5 5#6 7.905882 $L=0.105 $W=0.17
ReL267 5#7 5#8 0.049461 $L=0.1145 $W=0.29
ReL268 5#8 5#9 0.463451 $L=0.63 $W=0.17
ReL269 5#9 5#10 0.057878 $L=0.1145 $W=0.29
Rh_2_L270 5 5#2 15.000000 $A=0.0289
Rh_2_L271 MX65/M0#d 5#5 15.000000 $A=0.0289
RjL272 5#6 5#7 152.000000 $A=0.0289
RjL273 5#3 5#10 152.000000 $A=0.0289
RmwL274 MX87/M0#d 5 0.001000 $W=1000000
RmwL275 MM1#d 5 0.001000 $W=1000000
*
*|NET 6 1.89043e-15
*|I (MX85/M0#g MX85/M0 g X 0 8.4850 0.8000)
*|I (MX85/M1#g MX85/M1 g X 0 8.9150 0.8000)
*|I (MX85/M2#g MX85/M2 g X 0 9.3450 0.8000)
*|I (MX85/M3#g MX85/M3 g X 0 9.7750 0.8000)
*|I (MX80/M0#d MX80/M0 d X 0 6.7505 0.8000)
*|I (MX80/M1#s MX80/M1 s X 0 7.0295 0.8000)
*|I (MX76/M0#g MX76/M0 g X 0 5.2950 0.8000)
*|I (MX68/M0#g MX68/M0 g X 0 8.0550 0.8000)
*|I (MX89/M0#d MX89/M0 d X 0 6.7505 3.1950)
*|I (MX89/M1#s MX89/M1 s X 0 7.0295 3.1950)
*|I (MX87/M0#g MX87/M0 g X 0 5.2950 3.1950)
*|I (MX84/M0#g MX84/M0 g X 0 8.4850 3.1550)
*|I (MX84/M1#g MX84/M1 g X 0 8.9150 3.1550)
*|I (MX84/M2#g MX84/M2 g X 0 9.3450 3.1550)
*|I (MX84/M3#g MX84/M3 g X 0 9.7750 3.1550)
*|I (MX66/M0#g MX66/M0 g X 0 8.0550 3.1550)
*|S (6 5.2950 3.1950)
*|S (6#43 5.2950 1.9700)
*|S (6#44 5.2950 1.8050)
*|S (6#45 9.7750 1.9700)
*|S (6#46 9.3450 1.9700)
*|S (6#47 8.9150 1.9700)
*|S (6#48 8.4850 1.9700)
*|S (6#49 8.0550 1.9700)
*|S (6#51 6.8900 3.1950)
*|S (6#52 6.8900 2.9900)
*|S (6#53 6.8900 0.8900)
*|S (6#55 6.8900 0.8000)
*|S (6#56 8.9150 1.9700)
*|S (6#57 6.8900 1.9700)
*|S (6#58 5.2950 1.9700)
*|S (6#59 6.8900 2.9900)
*|S (6#60 6.8900 1.9700)
*|S (6#61 6.8900 0.8900)
CL19 MX66/M0#g VSS 9.46567e-19
CL20 MX84/M3#g VSS 5.68815e-18
CL21 MX84/M2#g VSS 1.91806e-18
CL22 MX84/M1#g VSS 7.06763e-19
CL23 MX84/M0#g VSS 7.62772e-19
CL24 MX68/M0#g VSS 1.4225e-17
CL25 MX76/M0#g VSS 2.97379e-17
CL26 MX80/M0#d VSS 7.61885e-18
CL27 MX85/M3#g VSS 1.79426e-17
CL28 MX85/M2#g VSS 1.31677e-17
CL29 MX85/M1#g VSS 1.335e-17
CL30 MX85/M0#g VSS 1.56183e-17
CL31 6#61 VSS 2.91132e-17
CL32 6#60 VSS 7.22933e-18
CL33 6#59 VSS 1.26507e-18
CL34 6#58 VSS 3.20906e-17
CL35 6#56 VSS 5.69356e-17
CL36 6#57 VSS 4.55957e-17
CL37 6#52 VSS 1.17263e-17
CL38 6 VSS 1.08727e-18
CL39 MX68/M0#g MX68/M0#d 7.12693e-18
CL40 6#52 29#42 5.81188e-18
CL41 6#61 MX68/M0#d 5.64176e-18
CL42 MX68/M0#g 29#41 5.29622e-18
CL43 MX85/M1#g 29#41 5.29622e-18
CL44 MX85/M0#g 29#41 5.29622e-18
CL45 MX85/M2#g 29#40 5.27257e-18
CL46 6#60 29#42 4.16538e-18
CL47 6#56 29#36 4.13963e-18
CL48 MX85/M3#g 29#40 4.01511e-18
CL49 MX66/M0#g 29#42 3.10663e-18
CL50 6#59 29#36 3.06164e-18
CL51 6#60 29#41 3.02215e-18
CL52 6#52 29#36 2.82206e-18
CL53 MX80/M0#d 29#44 2.33914e-18
CL54 MX84/M0#g 29#36 2.12914e-18
CL55 MX68/M0#g 29#44 1.87466e-18
CL56 6#56 29#43 3.75788e-17
CL57 6#60 29#43 2.48332e-17
CL58 6#56 29#41 1.2066e-16
CL59 6#56 29#40 4.96495e-17
CL60 MX66/M0#g 29#36 1.15214e-17
CL61 6#61 29#44 2.71899e-17
CL62 6#59 29#42 3.64682e-17
CL63 6#61 11#31 6.58139e-18
CL64 6 11#29 5.74001e-18
CL65 6#59 11#29 5.37268e-18
CL66 MX76/M0#g 11#31 5.19678e-18
CL67 6#58 11#40 1.04535e-17
CL68 6#58 11#39 1.03893e-17
CL69 MX68/M0#g MX85/M0#s 7.57466e-18
CL70 MX85/M3#g MX85/M3#d 7.15597e-18
CL71 MX85/M2#g MX85/M1#d 7.15597e-18
CL72 MX85/M1#g MX85/M1#d 7.15597e-18
CL73 MX85/M0#g MX85/M0#s 7.15597e-18
CL74 6#61 MX80/M1#d 6.72588e-18
CL75 6#61 MX80/M0#s 6.69879e-18
CL76 MX80/M0#d VSS#42 5.72622e-18
CL77 MX76/M0#g VSS#12 5.45659e-18
CL78 6#57 MX80/M1#d 5.39692e-18
CL79 MX76/M0#g VSS#42 4.8201e-18
CL80 MX68/M0#g VSS#41 4.8201e-18
CL81 MX85/M0#g VSS#41 4.8201e-18
CL82 MX68/M0#g VSS#9 4.29097e-18
CL83 MX85/M0#g VSS#9 4.29097e-18
CL84 MX85/M1#g VSS#8 4.29097e-18
CL85 MX85/M3#g VSS#6 4.21434e-18
CL86 6#56 VSS#41 3.57373e-18
CL87 6#61 MX69/M0#s 3.2121e-18
CL88 6#57 VSS#41 3.17971e-18
CL89 MX85/M2#g VSS#41 3.117e-18
CL90 MX85/M1#g VSS#41 3.117e-18
CL91 MX85/M3#g VSS#41 3.05747e-18
CL92 6#61 VSS#11 2.52991e-18
CL93 6#61 VSS#10 2.51924e-18
CL94 MX80/M0#d VSS#11 2.39936e-18
CL95 MX80/M0#d VSS#10 2.37595e-18
CL96 MX85/M2#g VSS#6 2.27958e-18
CL97 MX68/M0#g MX80/M1#d 2.23615e-18
CL98 MX85/M2#g VSS#8 1.99223e-18
CL99 MX80/M0#d MX80/M1#d 2.0739e-17
CL100 6#61 VSS#42 1.96374e-17
CL101 MX80/M0#d MX80/M0#s 2.14787e-17
RgL276 6 6#43 374.792419 $L=1.225 $W=0.15
RgL277 6#43 6#44 34.134449 $L=0.1645 $W=0.27
RgL278 6#44 MX76/M0#g 322.984650 $L=1.005 $W=0.15
RgL279 MX84/M3#g 6#45 376.803314 $L=1.185 $W=0.15
RgL280 6#45 6#46 62.011234 $L=0.43 $W=0.27
RgL281 6#46 6#47 75.310860 $L=0.43 $W=0.27
RgL282 6#45 MX85/M3#g 371.983307 $L=1.17 $W=0.15
RgL283 6#46 MX85/M2#g 369.426422 $L=1.17 $W=0.15
RgL284 6#46 MX84/M2#g 374.246399 $L=1.185 $W=0.15
RgL285 6#47 MX85/M1#g 356.679993 $L=1.17 $W=0.15
RgL286 6#47 6#48 75.310860 $L=0.43 $W=0.27
RgL287 6#48 MX85/M0#g 369.426422 $L=1.17 $W=0.15
RgL288 6#47 MX84/M1#g 361.500000 $L=1.185 $W=0.15
RgL289 6#48 6#49 62.011227 $L=0.43 $W=0.27
RgL290 6#49 MX68/M0#g 371.983307 $L=1.17 $W=0.15
RgL291 6#48 MX84/M0#g 374.246399 $L=1.185 $W=0.15
RgL292 6#49 MX66/M0#g 376.803314 $L=1.185 $W=0.15
RfL293 6#51 6#52 15.435293 $L=0.205 $W=0.17
RfL294 6#53 6#55 6.776471 $L=0.09 $W=0.17
RfL295 6#56 6#57 152.470581 $L=2.025 $W=0.17
RfL296 6#57 6#58 120.094116 $L=1.595 $W=0.17
ReL297 6#59 6#60 0.554348 $L=1.02 $W=0.23
ReL298 6#60 6#61 0.586957 $L=1.08 $W=0.23
RhL299 MX80/M0#d 6#55 15.000000 $A=0.0289
Rh_2_L300 MX89/M0#d 6#51 15.000000 $A=0.0289
RjL301 6#52 6#59 76.000000 $A=0.0578
RjL302 6#57 6#60 152.000000 $A=0.0289
RjL303 6#53 6#61 152.000000 $A=0.0289
RiL304 6#47 6#56 3.750000 $A=0.1156
RiL305 6#43 6#58 15.000000 $A=0.0289
RmwL306 MX80/M1#s MX80/M0#d 0.001000 $W=1000000
RmwL307 MX89/M1#s MX89/M0#d 0.001000 $W=1000000
RmwL308 MX87/M0#g 6 0.001000 $W=1000000
*
*|NET D 4.65405e-16
*|P (D X 0 0.9350 1.2500)
*|I (MX67/M0#g MX67/M0 g X 0 0.9050 0.8000)
*|I (MM0#g MM0 g X 0 0.9050 3.1950)
*|S (D#8 0.9050 1.2900)
*|S (D#9 0.9050 1.1250)
*|S (D#10 0.9200 1.2900)
*|S (D#11 0.9050 1.2900)
*|S (D#12 0.9200 1.2900)
CB1 MM0#g VSS 8.46856e-18
CB2 MX67/M0#g VSS 1.81071e-17
CB3 D#11 VSS 2.2318e-17
CB4 D VSS 1.73932e-17
CB5 D#11 33 1.35431e-17
CB6 MX67/M0#g 33 6.23839e-18
CB7 D 33 2.20337e-17
CB8 MM0#g 2#12 1.43725e-18
CB9 D#11 2#20 5.80113e-18
CB10 D 2#20 7.41819e-17
CB11 D MX78/M0#d 3.34992e-18
CB12 MM0#g 1#36 1.69037e-18
CB13 MX67/M0#g MX70/M0#d 1.54951e-18
CB14 MM0#g 1#43 7.24292e-19
CB15 D#11 1#46 1.26951e-17
CB16 D 1#42 7.96149e-18
CB17 D 1#43 7.17749e-18
CB18 D#11 1#43 1.19223e-17
CB19 D MX70/M0#d 4.74951e-18
CB20 D#11 1#42 5.6156e-18
CB21 D 1#46 4.20015e-17
CB22 D 1#45 2.8194e-17
CB23 D#11 VSS#42 3.12861e-18
CB24 MX67/M0#g MX70/M0#s 7.17996e-18
CB25 D VSS#17 3.82844e-18
CB26 D MX70/M0#s 1.60038e-17
CB27 D#11 MX70/M0#s 2.82162e-17
CB28 MX67/M0#g VSS#17 3.64084e-18
CB29 MX67/M0#g VSS#42 2.82733e-18
CB30 D VSS#42 2.50454e-17
CB31 MM0#g MX62/M0#s 7.74909e-18
CB32 MM0#g VDD 1.42175e-17
CB33 MM0#g VDD#36 3.36646e-18
CB34 MM0#g VDD#41 2.82762e-18
RgB10 MM0#g D#8 593.299072 $L=1.905 $W=0.15
RgB11 D#8 D#9 34.134449 $L=0.1645 $W=0.27
RgB12 D#9 MX67/M0#g 104.477959 $L=0.325 $W=0.15
RfB13 D#10 D#11 1.129412 $L=0.015 $W=0.17
ReB14 D D#12 0.019231 $L=0.04 $W=0.26
RjB15 D#10 D#12 152.000000 $A=0.0289
RiB16 D#8 D#11 15.000000 $A=0.0289
*
*|NET 2 1.4068e-15
*|I (MX93/M0#g MX93/M0 g X 0 4.0050 0.8000)
*|I (MX78/M0#d MX78/M0 d X 0 1.4105 0.8000)
*|I (MX72/M0#d MX72/M0 d X 0 1.6895 0.8000)
*|I (MX92/M0#g MX92/M0 g X 0 4.0050 3.1950)
*|I (MX90/M0#d MX90/M0 d X 0 1.6895 3.1950)
*|I (MX75/M0#d MX75/M0 d X 0 1.4105 3.1950)
*|S (2 4.0050 3.1950)
*|S (2#8 4.0050 2.6500)
*|S (2#9 4.0050 2.4850)
*|S (2#11 1.5500 3.1950)
*|S (2#12 1.5500 3.0900)
*|S (2#13 1.5500 0.8500)
*|S (2#15 1.5500 0.8000)
*|S (2#16 4.0050 2.6500)
*|S (2#17 3.7900 2.6500)
*|S (2#18 3.7900 2.6500)
*|S (2#19 1.5500 3.0900)
*|S (2#20 1.5500 0.8500)
CI1 MX78/M0#d VSS 7.01798e-18
CI2 MX93/M0#g VSS 2.71494e-17
CI3 2#20 VSS 1.41623e-17
CI4 2#19 VSS 8.65644e-18
CI5 2#18 VSS 7.10621e-18
CI6 2#16 VSS 4.98375e-18
CI7 2#12 VSS 2.67712e-18
CI8 2#17 VSS 1.32807e-18
CI9 2 VSS 6.62213e-18
CI10 MX78/M0#d 33 1.84372e-17
CI11 2#12 39 2.49505e-17
CI12 2#19 39 2.36587e-17
CI13 2#19 35 5.54441e-18
CI14 2#20 37 6.61784e-18
CI15 2#20 33 5.14829e-18
CI16 2#19 37 8.47077e-19
CI17 MX78/M0#d 37 1.87525e-17
CI18 2#12 35 2.44644e-17
CI19 2#12 11 6.79664e-18
CI20 MX78/M0#d MX72/M0#g 6.2356e-18
CI21 2#16 11#30 3.91082e-18
CI22 2#17 11#26 3.09511e-18
CI23 2#18 11#32 3.06703e-18
CI24 2#20 11#38 2.54656e-18
CI25 2#19 11#36 2.53134e-18
CI26 2#18 11#33 2.04559e-18
CI27 2#18 MX63/M0#d 1.50114e-17
CI28 2#12 11#27 2.14552e-17
CI29 MX78/M0#d 11#36 1.27386e-17
CI30 2#18 11#26 7.09736e-18
CI31 MX93/M0#g 11#32 9.4053e-18
CI32 2#18 11#37 3.32818e-17
CI33 2#20 11#36 2.45299e-17
CI34 2#19 11#26 1.41531e-17
CI35 2#19 11#27 5.47047e-17
CI36 2#19 MX63/M0#d 7.50756e-18
CI37 2#19 11#37 3.20884e-17
CI38 2 3#17 6.80947e-18
CI39 MX93/M0#g MX93/M0#d 6.2356e-18
CI40 2#18 3#17 3.37339e-18
CI41 MX93/M0#g 3#23 2.38356e-18
CI42 2#19 3 2.13526e-18
CI43 2 3#22 1.83196e-18
CI44 MX78/M0#d 3#24 1.65743e-18
CI45 2#12 3 1.3261e-18
CI46 2#16 3#22 1.55697e-17
CI47 2#20 3#24 4.26266e-17
CI48 2#19 3#24 8.68565e-18
CI49 2#20 3#11 9.12924e-18
CI50 2#18 3#22 8.8491e-17
CI51 2#16 3#17 1.21118e-17
CI52 2#18 3#21 8.38444e-17
CI53 2#18 MX64/M0#d 2.03894e-17
CI54 MX78/M0#d VSS#42 5.55311e-18
CI55 MX93/M0#g VSS#6 4.87612e-18
CI56 MX78/M0#d VSS#17 3.62342e-18
CI57 MX78/M0#d VSS#16 3.60004e-18
CI58 MX93/M0#g VSS#42 2.91292e-18
CI59 2#20 VSS#17 2.68851e-18
CI60 2#19 VSS#16 2.46771e-18
CI61 2#20 VSS#16 2.29229e-18
CI62 2#20 VSS#42 2.07771e-17
RgI204 2 2#8 156.285751 $L=0.545 $W=0.15
RgI205 2#8 2#9 34.134449 $L=0.1645 $W=0.27
RgI206 2#9 MX93/M0#g 541.491272 $L=1.685 $W=0.15
RfI207 2#11 2#12 7.905882 $L=0.105 $W=0.17
RfI208 2#13 2#15 3.764706 $L=0.05 $W=0.17
RfI209 2#16 2#17 16.188236 $L=0.215 $W=0.17
ReI210 2#18 2#19 1.386669 $L=2.67 $W=0.23
ReI211 2#19 2#20 1.217391 $L=2.24 $W=0.23
RhI212 MX78/M0#d 2#15 15.000000 $A=0.0289
Rh_2_I213 MX90/M0#d 2#11 15.000000 $A=0.0289
RjI214 2#17 2#18 152.000000 $A=0.0289
RjI215 2#12 2#19 152.000000 $A=0.0289
RjI216 2#13 2#20 152.000000 $A=0.0289
RiI217 2#8 2#16 15.000000 $A=0.0289
RmwI218 MX72/M0#d MX78/M0#d 0.001000 $W=1000000
RmwI219 MX92/M0#g 2 0.001000 $W=1000000
RmwI220 MX75/M0#d MX90/M0#d 0.001000 $W=1000000
*
*|NET QN 1.08432e-15
*|P (QN X 0 11.0550 2.1150)
*|I (MX83/M0#d MX83/M0 d X 0 10.2805 0.8000)
*|I (MX83/M1#s MX83/M1 s X 0 10.5595 0.8000)
*|I (MX83/M2#d MX83/M2 d X 0 11.1405 0.8000)
*|I (MX83/M3#s MX83/M3 s X 0 11.4195 0.8000)
*|I (MX86/M0#d MX86/M0 d X 0 10.2805 3.1550)
*|I (MX86/M1#s MX86/M1 s X 0 10.5595 3.1550)
*|I (MX86/M2#d MX86/M2 d X 0 11.1405 3.1550)
*|I (MX86/M3#s MX86/M3 s X 0 11.4195 3.1550)
*|S (QN#2 10.4200 3.1550)
*|S (QN#3 10.4200 3.1300)
*|S (QN#4 10.4200 1.0050)
*|S (QN#6 10.4200 0.8000)
*|S (QN#8 11.2800 3.1550)
*|S (QN#9 11.2800 3.1300)
*|S (QN#10 11.2800 1.0050)
*|S (QN#12 11.2800 0.8000)
*|S (QN#13 11.2800 1.0050)
*|S (QN#14 11.0275 1.0050)
*|S (QN#15 11.0275 1.8850)
*|S (QN#16 10.4200 1.8850)
*|S (QN#17 10.4200 1.0050)
*|S (QN#18 11.2800 3.1300)
*|S (QN#19 10.4200 3.1300)
CD1 MX83/M2#d VSS 1.75172e-17
CD2 MX83/M0#d VSS 1.12533e-17
CD3 QN#19 VSS 4.16549e-18
CD4 QN#18 VSS 8.79548e-18
CD5 QN#17 VSS 1.13964e-17
CD6 QN#16 VSS 1.01436e-17
CD7 QN#14 VSS 3.51986e-17
CD8 QN#3 VSS 2.98228e-18
CD9 QN#9 VSS 2.29276e-18
CD10 QN VSS 2.41371e-17
CD11 QN#18 MX86/M3#g 3.7056e-18
CD12 QN#18 29#40 3.6563e-18
CD13 QN#18 MX86/M2#g 3.13656e-18
CD14 QN#16 MX86/M1#g 2.88098e-18
CD15 QN#16 MX83/M1#g 2.78921e-18
CD16 QN#14 MX83/M3#g 2.32963e-18
CD17 QN#3 MX86/M2#g 2.04941e-18
CD18 QN#3 29#40 1.92793e-18
CD19 QN#19 29 1.76986e-18
CD20 QN#19 MX86/M1#g 1.74375e-18
CD21 QN#9 MX86/M1#g 1.72079e-18
CD22 QN#14 MX83/M2#g 1.70339e-18
CD23 MX83/M0#d MX83/M2#g 1.31748e-18
CD24 QN#16 29#40 4.2158e-17
CD25 MX83/M2#d MX83/M2#g 6.23699e-18
CD26 MX83/M0#d MX83/M0#g 6.23699e-18
CD27 QN#9 MX86/M2#g 9.70506e-18
CD28 QN#9 29#40 6.29141e-18
CD29 MX83/M2#d MX83/M3#g 7.00915e-18
CD30 QN#3 MX86/M1#g 9.70506e-18
CD31 QN#14 29#40 1.9849e-17
CD32 MX83/M2#d 29#40 2.45868e-17
CD33 QN 29#40 3.0339e-17
CD34 MX83/M0#d MX83/M1#g 6.23699e-18
CD35 QN#9 MX86/M3#g 1.08629e-17
CD36 MX83/M0#d 29#40 2.11231e-17
CD37 QN#3 29 9.70506e-18
CD38 QN#17 MX83/M1#d 4.95561e-18
CD39 QN#14 VSS#3 4.43014e-18
CD40 QN#14 VSS#2 2.85005e-18
CD41 QN#17 VSS#4 2.77186e-18
CD42 QN#17 VSS#3 2.75978e-18
CD43 MX83/M0#d VSS#4 2.42318e-18
CD44 MX83/M2#d VSS#3 2.42318e-18
CD45 MX83/M0#d VSS#3 2.39954e-18
CD46 MX83/M2#d VSS#2 2.39954e-18
CD47 MX83/M0#d MX83/M1#d 2.0759e-17
CD48 QN#17 VSS#41 2.15763e-17
CD49 MX83/M0#d MX85/M3#d 2.0759e-17
CD50 MX83/M2#d MX83/M3#d 2.30273e-17
CD51 QN#14 MX83/M1#d 1.63175e-17
CD52 QN#14 MX83/M3#d 9.35712e-18
CD53 MX83/M2#d VSS#41 5.56735e-18
CD54 QN#17 MX85/M3#d 6.4104e-18
CD55 MX83/M0#d VSS#41 5.56735e-18
CD56 MX83/M2#d MX83/M1#d 2.00508e-17
CD57 QN#14 VSS#41 3.12833e-17
CD58 QN#18 VDD#3 5.04602e-18
CD59 QN MX86/M1#d 3.15269e-18
CD60 QN#18 VDD#2 3.03274e-18
CD61 QN#19 VDD#4 2.96081e-18
CD62 QN#19 VDD#3 2.94803e-18
CD63 QN#3 VDD#4 2.31534e-18
CD64 QN#9 VDD#3 2.31534e-18
CD65 QN#3 VDD#3 2.29276e-18
CD66 QN#9 MX86/M1#d 3.04421e-17
CD67 QN#3 MX86/M0#s 3.10592e-17
CD68 QN#3 VDD#40 5.5726e-18
CD69 QN#3 VDD 7.64891e-18
CD70 QN#19 VDD 8.79698e-18
CD71 QN#18 VDD 2.6906e-17
CD72 QN#9 VDD 1.14055e-17
CD73 QN#18 VDD#40 3.26697e-17
CD74 QN#3 MX86/M1#d 3.10592e-17
CD75 QN#16 VDD 9.09826e-18
CD76 QN#19 VDD#40 2.13864e-17
CD77 QN#19 MX86/M0#s 9.05404e-18
CD78 QN#19 MX86/M1#d 6.9922e-18
CD79 QN#18 MX86/M3#d 1.44418e-17
CD80 QN VDD 2.29546e-17
CD81 QN#9 MX86/M3#d 3.10589e-17
CD82 QN#18 MX86/M1#d 2.62712e-17
CD83 QN#9 VDD#40 5.5726e-18
RfD39 QN#2 QN#3 1.882353 $L=0.025 $W=0.17
RfD40 QN#4 QN#6 15.435293 $L=0.205 $W=0.17
RfD41 QN#8 QN#9 1.882353 $L=0.025 $W=0.17
RfD42 QN#10 QN#12 15.435293 $L=0.205 $W=0.17
ReD43 QN#13 QN#14 0.063489 $L=0.2525 $W=0.65
ReD44 QN#14 QN#15 0.282263 $L=0.88 $W=0.285
ReD45 QN#15 QN#16 0.221942 $L=0.6075 $W=0.23
ReD46 QN#16 QN#17 0.473476 $L=0.88 $W=0.23
ReD47 QN#15 QN 0.097384 $L=0.23 $W=0.285
ReD48 QN QN#18 0.408457 $L=1.2675 $W=0.285
ReD49 QN#16 QN#19 0.671846 $L=1.245 $W=0.23
RhD50 MX83/M0#d QN#6 15.000000 $A=0.0289
RhD51 MX83/M2#d QN#12 15.000000 $A=0.0289
Rh_2_D52 MX86/M0#d QN#2 15.000000 $A=0.0289
Rh_2_D53 MX86/M2#d QN#8 15.000000 $A=0.0289
RjD54 QN#10 QN#13 76.000000 $A=0.0578
RjD55 QN#4 QN#17 76.000000 $A=0.0578
RjD56 QN#9 QN#18 76.000000 $A=0.0578
RjD57 QN#3 QN#19 76.000000 $A=0.0578
RmwD58 MX83/M1#s MX83/M0#d 0.001000 $W=1000000
RmwD59 MX83/M3#s MX83/M2#d 0.001000 $W=1000000
RmwD60 MX86/M1#s MX86/M0#d 0.001000 $W=1000000
RmwD61 MX86/M3#s MX86/M2#d 0.001000 $W=1000000
*
*|NET Q 1.19181e-15
*|P (Q X 0 9.6745 2.0600)
*|I (MX85/M0#d MX85/M0 d X 0 8.5605 0.8000)
*|I (MX85/M1#s MX85/M1 s X 0 8.8395 0.8000)
*|I (MX85/M2#d MX85/M2 d X 0 9.4205 0.8000)
*|I (MX85/M3#s MX85/M3 s X 0 9.6995 0.8000)
*|I (MX84/M0#d MX84/M0 d X 0 8.5605 3.1550)
*|I (MX84/M1#s MX84/M1 s X 0 8.8395 3.1550)
*|I (MX84/M2#d MX84/M2 d X 0 9.4205 3.1550)
*|I (MX84/M3#s MX84/M3 s X 0 9.6995 3.1550)
*|S (Q#2 8.7000 3.1550)
*|S (Q#3 8.7000 3.1300)
*|S (Q#4 8.7000 1.0050)
*|S (Q#6 8.7000 0.8000)
*|S (Q#8 9.5600 3.1550)
*|S (Q#9 9.5600 3.1300)
*|S (Q#10 9.5600 1.0050)
*|S (Q#12 9.5600 0.8000)
*|S (Q#13 8.7000 3.1300)
*|S (Q#14 8.7000 1.8850)
*|S (Q#15 8.7000 1.0050)
*|S (Q#16 9.6175 1.8850)
*|S (Q#17 9.5600 1.0050)
*|S (Q#18 9.5600 3.1300)
CC1 MX85/M2#d VSS 1.25385e-17
CC2 MX85/M0#d VSS 1.26646e-17
CC3 Q#18 VSS 1.04388e-18
CC4 Q#17 VSS 1.22473e-17
CC5 Q#15 VSS 1.1423e-17
CC6 Q#14 VSS 7.12876e-18
CC7 Q#13 VSS 1.03558e-18
CC8 Q#3 VSS 5.56429e-18
CC9 Q#9 VSS 5.46329e-18
CC10 Q VSS 1.0587e-17
CC11 Q#15 MX68/M0#d 5.5283e-18
CC12 MX85/M0#d MX68/M0#d 5.33791e-18
CC13 MX85/M0#d 29#44 4.21121e-18
CC14 Q#13 29#36 3.16545e-18
CC15 Q#3 29#42 2.97755e-18
CC16 MX85/M2#d 29#40 2.11231e-17
CC17 Q#14 29#43 2.69398e-17
CC18 Q#14 29#41 4.06627e-17
CC19 Q#15 29#44 2.92532e-17
CC20 Q#14 29#42 6.07901e-18
CC21 Q 29#40 4.94104e-17
CC22 Q#15 29#43 6.07901e-18
CC23 MX85/M0#d 29#41 2.11231e-17
CC24 Q#13 29#42 4.10697e-17
CC25 Q#3 6#56 4.13963e-18
CC26 Q#9 6#56 4.13963e-18
CC27 Q#14 MX84/M1#g 3.6165e-18
CC28 Q MX84/M2#g 3.6165e-18
CC29 Q#14 MX85/M1#g 2.78921e-18
CC30 Q MX85/M2#g 2.78921e-18
CC31 Q#13 MX84/M1#g 2.43955e-18
CC32 Q#13 MX84/M0#g 2.43955e-18
CC33 Q#18 MX84/M2#g 2.41986e-18
CC34 Q#3 MX66/M0#g 2.19542e-18
CC35 Q#3 MX84/M2#g 2.04941e-18
CC36 Q#9 MX84/M1#g 2.04941e-18
CC37 Q#15 MX85/M1#g 1.53482e-18
CC38 Q#15 MX85/M0#g 1.53482e-18
CC39 Q#17 MX85/M2#g 1.52106e-18
CC40 MX85/M0#d MX85/M1#g 6.23699e-18
CC41 Q#14 6#56 4.07554e-17
CC42 MX85/M2#d MX85/M2#g 6.23699e-18
CC43 MX85/M0#d MX85/M0#g 6.23699e-18
CC44 Q#3 MX84/M0#g 9.70506e-18
CC45 Q#9 MX84/M2#g 9.70506e-18
CC46 Q 6#56 3.58257e-17
CC47 Q#3 MX84/M1#g 9.70506e-18
CC48 Q#9 MX84/M3#g 9.70506e-18
CC49 MX85/M2#d MX85/M3#g 6.23699e-18
CC50 MX85/M2#d VSS#41 5.58537e-18
CC51 MX85/M0#d VSS#41 5.56735e-18
CC52 MX85/M2#d VSS#6 4.84636e-18
CC53 Q#15 VSS#9 2.77186e-18
CC54 Q#15 VSS#8 2.75978e-18
CC55 MX85/M0#d VSS#9 2.42318e-18
CC56 MX85/M0#d VSS#8 2.39954e-18
CC57 Q#15 MX85/M1#d 7.14627e-18
CC58 MX85/M0#d MX85/M1#d 2.0759e-17
CC59 Q#17 VSS#41 2.87949e-17
CC60 MX85/M2#d MX85/M1#d 2.0759e-17
CC61 MX85/M2#d MX85/M3#d 2.05979e-17
CC62 MX85/M0#d MX85/M0#s 2.0759e-17
CC63 Q#17 VSS#6 7.31113e-18
CC64 Q#15 MX85/M0#s 7.14627e-18
CC65 Q#15 VSS#41 2.15763e-17
CC66 Q#17 MX85/M1#d 7.19697e-18
CC67 Q#17 MX85/M3#d 1.00982e-17
CC68 Q#9 VDD#40 5.44948e-18
CC69 Q#3 VDD#40 5.4319e-18
CC70 Q#9 VDD#6 4.63069e-18
CC71 Q MX84/M1#d 4.14455e-18
CC72 Q#14 MX84/M1#d 4.12754e-18
CC73 Q#13 VDD#9 2.96081e-18
CC74 Q#13 VDD#8 2.94803e-18
CC75 Q#3 VDD 7.1399e-18
CC76 Q#9 MX84/M1#d 3.10592e-17
CC77 Q#3 MX84/M0#s 3.10592e-17
CC78 Q#13 VDD#40 2.13864e-17
CC79 Q#9 VDD 7.14201e-18
CC80 Q#13 MX84/M0#s 1.11909e-17
CC81 Q#3 MX84/M1#d 3.10592e-17
CC82 Q#18 VDD#6 8.14798e-18
CC83 Q#9 MX86/M0#s 3.07506e-17
CC84 Q#18 VDD 1.09749e-17
CC85 Q#13 MX84/M1#d 1.11909e-17
CC86 Q#18 MX86/M0#s 1.57532e-17
CC87 Q#18 MX84/M1#d 1.12666e-17
CC88 Q#14 VDD 9.25038e-18
CC89 Q#18 VDD#40 2.93815e-17
CC90 Q#13 VDD 1.08637e-17
CC91 Q VDD 1.26003e-17
CC92 MX85/M2#d MX83/M0#d 5.2085e-18
CC93 Q#18 QN#3 4.13693e-18
CC94 MX85/M2#d QN#17 3.42095e-18
CC95 Q#17 MX83/M0#d 5.62739e-18
CC96 Q#18 QN#19 4.81734e-17
CC97 Q#17 QN#17 4.13426e-17
CC98 Q QN#16 4.32132e-17
RfC17 Q#2 Q#3 1.882353 $L=0.025 $W=0.17
RfC18 Q#4 Q#6 15.435293 $L=0.205 $W=0.17
RfC19 Q#8 Q#9 1.882353 $L=0.025 $W=0.17
RfC20 Q#10 Q#12 15.435293 $L=0.205 $W=0.17
ReC21 Q#13 Q#14 0.671846 $L=1.245 $W=0.23
ReC22 Q#14 Q#15 0.473476 $L=0.88 $W=0.23
ReC23 Q#14 Q#16 0.381942 $L=0.9175 $W=0.23
ReC24 Q#16 Q#17 0.316235 $L=0.88 $W=0.345
ReC25 Q#16 Q 0.060800 $L=0.175 $W=0.345
ReC26 Q Q#18 0.387681 $L=1.07 $W=0.345
RhC27 MX85/M0#d Q#6 15.000000 $A=0.0289
RhC28 MX85/M2#d Q#12 15.000000 $A=0.0289
Rh_2_C29 MX84/M0#d Q#2 15.000000 $A=0.0289
Rh_2_C30 MX84/M2#d Q#8 15.000000 $A=0.0289
RjC31 Q#3 Q#13 76.000000 $A=0.0578
RjC32 Q#4 Q#15 76.000000 $A=0.0578
RjC33 Q#10 Q#17 76.000000 $A=0.0578
RjC34 Q#9 Q#18 76.000000 $A=0.0578
RmwC35 MX85/M1#s MX85/M0#d 0.001000 $W=1000000
RmwC36 MX85/M3#s MX85/M2#d 0.001000 $W=1000000
RmwC37 MX84/M1#s MX84/M0#d 0.001000 $W=1000000
RmwC38 MX84/M3#s MX84/M2#d 0.001000 $W=1000000
*
*|NET VDD 2.96109e-15
*|P (VDD X 0 4.8250 4.1450)
*|I (MX92/M0#s MX92/M0 s X 0 3.9295 3.1950)
*|I (MX89/M0#s MX89/M0 s X 0 6.5995 3.1950)
*|I (MX89/M1#d MX89/M1 d X 0 7.1805 3.1950)
*|I (MX88/M0#s MX88/M0 s X 0 2.2705 3.1950)
*|I (MX87/M0#s MX87/M0 s X 0 5.3705 3.1950)
*|I (MX86/M0#s MX86/M0 s X 0 10.1295 3.1550)
*|I (MX86/M1#d MX86/M1 d X 0 10.7105 3.1550)
*|I (MX86/M2#s MX86/M2 s X 0 10.9895 3.1550)
*|I (MX86/M3#d MX86/M3 d X 0 11.5705 3.1550)
*|I (MX84/M0#s MX84/M0 s X 0 8.4095 3.1550)
*|I (MX84/M1#d MX84/M1 d X 0 8.9905 3.1550)
*|I (MX84/M2#s MX84/M2 s X 0 9.2695 3.1550)
*|I (MX84/M3#d MX84/M3 d X 0 9.8505 3.1550)
*|I (MX66/M0#s MX66/M0 s X 0 8.1305 3.1550)
*|I (MX65/M0#s MX65/M0 s X 0 5.6495 3.1950)
*|I (MX64/M0#s MX64/M0 s X 0 3.6505 3.1950)
*|I (MX63/M0#s MX63/M0 s X 0 2.5495 3.1950)
*|I (MX62/M0#s MX62/M0 s X 0 0.5505 3.1950)
*|I (MM0#s MM0 s X 0 0.8295 3.1950)
*|S (VDD#1 12.4195 4.1400)
*|S (VDD#2 11.7100 4.1400)
*|S (VDD#3 10.8500 4.1400)
*|S (VDD#4 9.9900 4.1400)
*|S (VDD#5 9.6600 4.1400)
*|S (VDD#6 9.6600 4.1400)
*|S (VDD#8 9.1300 4.1400)
*|S (VDD#9 8.2700 4.1400)
*|S (VDD#10 7.3200 4.1400)
*|S (VDD#11 6.4600 4.1400)
*|S (VDD#12 5.5100 4.1400)
*|S (VDD#13 3.6800 4.1400)
*|S (VDD#16 11.7100 3.1550)
*|S (VDD#18 10.8500 3.1550)
*|S (VDD#20 9.9900 3.1550)
*|S (VDD#22 9.1300 3.1550)
*|S (VDD#24 8.2700 3.1550)
*|S (VDD#26 7.3200 3.1950)
*|S (VDD#28 6.4600 3.1950)
*|S (VDD#30 5.5100 3.1950)
*|S (VDD#32 3.7900 3.1950)
*|S (VDD#33 2.4100 4.1400)
*|S (VDD#35 2.4100 3.1950)
*|S (VDD#36 0.6900 4.1400)
*|S (VDD#38 0.6900 3.1950)
*|S (VDD#39 0.0000 4.1400)
*|S (VDD#40 9.6600 4.1400)
*|S (VDD#41 3.6800 4.1400)
CF1 MX62/M0#s VSS 2.48151e-18
CF2 MX84/M1#d VSS 1.80467e-18
CF3 MX84/M0#s VSS 5.98018e-19
CF4 MX86/M3#d VSS 3.09225e-18
CF5 MX86/M1#d VSS 3.63334e-18
CF6 MX86/M0#s VSS 1.80467e-18
CF7 MX87/M0#s VSS 2.13085e-18
CF8 MX88/M0#s VSS 5.58258e-18
CF9 MX89/M0#s VSS 1.13067e-18
CF10 MX92/M0#s VSS 1.3464e-18
CF11 VDD#41 VSS 1.07783e-17
CF12 VDD#40 VSS 2.93814e-18
CF13 VDD#36 VSS 4.01704e-18
CF14 VDD#33 VSS 6.41607e-18
CF15 VDD#12 VSS 3.10196e-18
CF16 VDD#11 VSS 3.22134e-18
CF17 VDD#10 VSS 1.90841e-18
CF18 VDD#9 VSS 2.31534e-18
CF19 VDD#8 VSS 4.95978e-18
CF20 VDD#3 VSS 4.55901e-19
CF21 VDD#2 VSS 3.27798e-18
CF22 VDD#39 VSS 1.90573e-18
CF23 VDD#6 VSS 3.10726e-18
CF24 VDD VSS 1.30146e-18
CF25 VDD#41 35 7.72663e-18
CF26 VDD#33 39 6.91908e-18
CF27 VDD 39 4.05453e-18
CF28 VDD#36 35 6.91908e-18
CF29 VDD 35 4.46234e-18
CF30 MX62/M0#s 35 2.85672e-17
CF31 VDD#41 39 6.06053e-18
CF32 MX88/M0#s 39 3.00507e-17
CF33 MX86/M0#s 29#40 6.60904e-18
CF34 VDD#40 29#36 5.4319e-18
CF35 VDD#40 MX86/M3#g 5.21596e-18
CF36 VDD#40 29 5.21596e-18
CF37 VDD 29#43 4.18159e-18
CF38 VDD#4 29 3.89698e-18
CF39 VDD#3 MX86/M2#g 3.89698e-18
CF40 VDD#3 MX86/M1#g 3.89698e-18
CF41 VDD#2 MX86/M3#g 3.89698e-18
CF42 VDD#40 29#40 3.84975e-18
CF43 VDD#9 29#42 3.52325e-18
CF44 VDD#40 MX86/M1#g 3.37299e-18
CF45 VDD#9 29#36 3.30925e-18
CF46 MX86/M3#d MX86/M2#g 2.91474e-18
CF47 VDD#10 29#36 2.48476e-18
CF48 VDD#10 29#42 2.38559e-18
CF49 MX86/M1#d 29#40 1.98918e-18
CF50 VDD#40 MX86/M2#g 1.86979e-18
CF51 MX89/M1#d 29#42 9.85122e-18
CF52 VDD 29#36 8.772e-18
CF53 VDD#40 29#42 2.13864e-17
CF54 VDD MX86/M3#g 1.43084e-17
CF55 MX84/M0#s 29#36 3.10592e-17
CF56 MX84/M0#s 29#42 1.11909e-17
CF57 VDD MX86/M2#g 1.3301e-17
CF58 VDD MX86/M1#g 8.34942e-18
CF59 MX86/M1#d MX86/M1#g 8.72526e-18
CF60 MX86/M3#d MX86/M3#g 1.15141e-17
CF61 MX86/M1#d MX86/M2#g 8.75902e-18
CF62 VDD 29 1.2141e-17
CF63 MX89/M1#d 29#36 2.30623e-17
CF64 VDD 29#42 1.52339e-17
CF65 MX86/M0#s 29 8.72526e-18
CF66 VDD 11#30 6.74797e-18
CF67 VDD 11#29 6.49482e-18
CF68 VDD#41 MX63/M0#d 6.35039e-18
CF69 VDD#33 MX63/M0#d 5.6418e-18
CF70 VDD#41 MM1#g 4.96661e-18
CF71 VDD#41 11 4.96661e-18
CF72 VDD#41 11#27 4.74098e-18
CF73 VDD MX63/M0#d 4.53555e-18
CF74 VDD#36 11 4.50865e-18
CF75 VDD#12 MM1#g 4.50865e-18
CF76 VDD#41 11#26 2.52076e-18
CF77 VDD#41 11#30 2.25135e-18
CF78 VDD 11#26 2.53394e-17
CF79 VDD 11#39 2.96548e-17
CF80 VDD 11#37 1.05247e-17
CF81 VDD 11#27 3.20381e-17
CF82 VDD MM1#g 1.58259e-17
CF83 MX88/M0#s 11#26 2.29306e-17
CF84 VDD 11 1.58806e-17
CF85 MX88/M0#s MX63/M0#d 2.86881e-17
CF86 MX84/M0#s MX66/M0#g 9.23577e-18
CF87 MX84/M1#d MX84/M2#g 8.72526e-18