*
*|DSPF 1.5
*
*|DATE "Fri Feb 28 13:33:37 2025"
*|VENDOR "Cadence Design Systems"
*|PROGRAM "Cadence Quantus Extraction"
*|VERSION "22.1.0-p089 Linux 64 bit - (Thu Jan 19 11:47:08 PST 2023)"
*|DESIGN "DFFSRX4_LP"
*|DIVIDER /
*|DELIMITER #
*|DeviceFingerDelim "@"
*|BUSBIT []
*|GLOBAL_TEMPERATURE 25
*|OPERATING_TEMPERATURE 25
** QRC_TECH_DIR /vols/wfo_devel/projects/reference_SKY130/tech/sky130_release_0.0.4/quantus/extraction/typical 
** HIERARCHICAL_SPLIT_PINS_DELIMITER '%'
** caps2d version: 10
*
.SUBCKT  DFFSRX4_LP CK D Q QN RN SN VDD VSS
*
*Net Section
*
*|GROUND_NET VSS
*
*|NET VSS 4.55543e-15
*|P (VSS X 0 7.7350 0.0050)
*|I (MX102/M0#s MX102/M0 s X 0 10.8995 0.8000)
*|I (MX102/M1#d MX102/M1 d X 0 11.4805 0.8000)
*|I (MX102/M2#s MX102/M2 s X 0 11.7595 0.8000)
*|I (MX102/M3#d MX102/M3 d X 0 12.3405 0.8000)
*|I (MX100/M0#s MX100/M0 s X 0 12.6195 0.8000)
*|I (MX100/M1#d MX100/M1 d X 0 13.2005 0.8000)
*|I (MX100/M2#s MX100/M2 s X 0 13.4795 0.8000)
*|I (MX100/M3#d MX100/M3 d X 0 14.0605 0.8000)
*|I (MX95/M0#s MX95/M0 s X 0 9.6705 0.8000)
*|I (MX95/M1#d MX95/M1 d X 0 9.0895 0.8000)
*|I (MX93/M0#s MX93/M0 s X 0 4.5105 0.8000)
*|I (MX83/M0#s MX83/M0 s X 0 7.0595 0.8000)
*|I (MX82/M0#s MX82/M0 s X 0 2.5495 0.8000)
*|I (MX81/M0#s MX81/M0 s X 0 0.5505 0.8000)
*|I (MX79/M0#s MX79/M0 s X 0 10.6205 0.8000)
*|I (MX78/M0#s MX78/M0 s X 0 6.7805 0.8000)
*|I (MX77/M0#s MX77/M0 s X 0 2.2705 0.8000)
*|I (MX76/M0#s MX76/M0 s X 0 0.8295 0.8000)
*|S (VSS#2 14.2000 0.8000)
*|S (VSS#3 14.2600 0.0000)
*|S (VSS#4 14.2600 0.0000)
*|S (VSS#6 13.3400 0.0000)
*|S (VSS#7 12.4800 0.0000)
*|S (VSS#8 11.6200 0.0000)
*|S (VSS#9 10.7600 0.0000)
*|S (VSS#10 10.5800 0.0000)
*|S (VSS#12 9.8100 0.0000)
*|S (VSS#13 8.9500 0.0000)
*|S (VSS#14 6.9200 0.0000)
*|S (VSS#15 4.6500 0.0000)
*|S (VSS#16 3.6800 0.0000)
*|S (VSS#18 2.4100 0.0000)
*|S (VSS#19 0.6900 0.0000)
*|S (VSS#20 0.0000 0.0000)
*|S (VSS#22 13.3400 0.8000)
*|S (VSS#24 12.4800 0.8000)
*|S (VSS#26 11.6200 0.8000)
*|S (VSS#28 10.7600 0.8000)
*|S (VSS#30 9.8100 0.8000)
*|S (VSS#32 8.9500 0.8000)
*|S (VSS#34 6.9200 0.8000)
*|S (VSS#36 4.6500 0.8000)
*|S (VSS#38 2.4100 0.8000)
*|S (VSS#40 0.6900 0.8000)
*|S (VSS#41 14.2600 0.0000)
*|S (VSS#42 10.5800 0.0000)
*|S (VSS#43 3.6800 0.0000)
RfH143 VSS#2 VSS#3 60.880791 $L=0.8 $W=0.17
RfH144 VSS#3 VSS#6 46.828812 $L=0.92 $W=0.25
RfH145 VSS#6 VSS#7 43.481621 $L=0.86 $W=0.25
RfH146 VSS#7 VSS#8 43.481621 $L=0.86 $W=0.25
RfH147 VSS#8 VSS#9 43.481621 $L=0.86 $W=0.25
RfH148 VSS#9 VSS#10 8.940811 $L=0.18 $W=0.25
RfH149 VSS#10 VSS#12 39.148811 $L=0.77 $W=0.25
RfH150 VSS#12 VSS#13 43.481621 $L=0.86 $W=0.25
RfH151 VSS#13 VSS#14 103.385620 $L=2.03 $W=0.25
RfH152 VSS#14 VSS#15 115.673615 $L=2.27 $W=0.25
RfH153 VSS#15 VSS#16 49.388809 $L=0.97 $W=0.25
RfH154 VSS#16 VSS#18 64.748810 $L=1.27 $W=0.25
RfH155 VSS#18 VSS#19 87.513618 $L=1.72 $W=0.25
RfH156 VSS#19 VSS#20 35.052811 $L=0.69 $W=0.25
RfH157 VSS#6 VSS#22 53.627445 $L=0.8 $W=0.17
RfH158 VSS#7 VSS#24 53.627445 $L=0.8 $W=0.17
RfH159 VSS#8 VSS#26 53.627445 $L=0.8 $W=0.17
RfH160 VSS#9 VSS#28 53.627445 $L=0.8 $W=0.17
RfH161 VSS#12 VSS#30 53.627445 $L=0.8 $W=0.17
RfH162 VSS#13 VSS#32 53.627445 $L=0.8 $W=0.17
RfH163 VSS#14 VSS#34 53.627445 $L=0.8 $W=0.17
RfH164 VSS#15 VSS#36 53.627445 $L=0.8 $W=0.17
RfH165 VSS#18 VSS#38 53.627445 $L=0.8 $W=0.17
RfH166 VSS#19 VSS#40 53.627445 $L=0.8 $W=0.17
ReH167 VSS#41 VSS#42 1.150000 $L=3.68 $W=0.4
ReH168 VSS#42 VSS 0.889063 $L=2.845 $W=0.4
ReH169 VSS VSS#43 1.267187 $L=4.055 $W=0.4
RhH170 MX100/M3#d VSS#2 15.000000 $A=0.0289
RhH171 MX100/M1#d VSS#22 15.000000 $A=0.0289
RhH172 MX102/M3#d VSS#24 15.000000 $A=0.0289
RhH173 MX102/M1#d VSS#26 15.000000 $A=0.0289
RhH174 MX102/M0#s VSS#28 15.000000 $A=0.0289
RhH175 MX95/M0#s VSS#30 15.000000 $A=0.0289
RhH176 MX95/M1#d VSS#32 15.000000 $A=0.0289
RhH177 MX83/M0#s VSS#34 15.000000 $A=0.0289
RhH178 MX93/M0#s VSS#36 15.000000 $A=0.0289
RhH179 MX82/M0#s VSS#38 15.000000 $A=0.0289
RhH180 MX81/M0#s VSS#40 15.000000 $A=0.0289
Rh_3_H181 VSS#4 VSS#3 15.000000 $A=0.0289
Rh_3_H182 VSS#4 VSS#10 1.000000 $A=0.4335
Rh_3_H183 VSS#4 VSS#16 1.000000 $A=0.4335
RjH184 VSS#3 VSS#41 152.000000 $A=0.0289
RjH185 VSS#10 VSS#42 10.133333 $A=0.4335
RjH186 VSS#16 VSS#43 10.133333 $A=0.4335
RmwH187 MX102/M2#s MX102/M1#d 0.001000 $W=1000000
RmwH188 MX100/M0#s MX102/M3#d 0.001000 $W=1000000
RmwH189 MX100/M2#s MX100/M1#d 0.001000 $W=1000000
RmwH190 MX79/M0#s MX102/M0#s 0.001000 $W=1000000
RmwH191 MX78/M0#s MX83/M0#s 0.001000 $W=1000000
RmwH192 MX77/M0#s MX82/M0#s 0.001000 $W=1000000
RmwH193 MX76/M0#s MX81/M0#s 0.001000 $W=1000000
*
*|NET D 4.74582e-16
*|P (D X 0 0.9350 1.4000)
*|I (MX76/M0#g MX76/M0 g X 0 0.9050 0.8000)
*|I (MX84/M0#g MX84/M0 g X 0 0.9050 3.2800)
*|S (D#8 0.9050 1.2900)
*|S (D#9 0.9050 1.1250)
*|S (D#10 0.9200 1.2900)
*|S (D#11 0.9050 1.2900)
*|S (D#12 0.9200 1.2900)
CB1 MX84/M0#g VSS 8.82966e-18
CB2 MX76/M0#g VSS 1.74976e-17
CB3 D#12 VSS 3.65623e-18
CB4 D#11 VSS 2.24073e-17
CB5 D VSS 1.01603e-17
CB6 D#11 44 1.35431e-17
CB7 MX76/M0#g 44 6.23002e-18
CB8 D#12 44 1.80687e-17
CB9 D#12 MX94/M0#d 1.96213e-18
CB10 D 2#22 1.73553e-18
CB11 MX84/M0#g 2#13 1.43725e-18
CB12 D 2#23 4.22781e-17
CB13 D#12 2#23 3.2942e-17
CB14 D#11 2#23 5.89945e-18
CB15 MX84/M0#g 1#39 1.69037e-18
CB16 MX76/M0#g MX81/M0#d 1.54951e-18
CB17 MX76/M0#g 1#47 7.29295e-19
CB18 D 1#47 1.18945e-17
CB19 D#11 1#50 1.26542e-17
CB20 D 1#50 5.43065e-18
CB21 D#11 1#47 1.19436e-17
CB22 D#12 1#50 3.12669e-17
CB23 D 1#49 3.58085e-17
CB24 D#11 1#46 5.62448e-18
CB25 D#12 MX81/M0#d 2.97125e-18
CB26 D 1#46 1.24994e-17
CB27 MX76/M0#g VSS#19 3.64084e-18
CB28 MX76/M0#g MX81/M0#s 7.17159e-18
CB29 D#11 MX81/M0#s 2.82162e-17
CB30 D#12 VSS#19 2.7302e-18
CB31 D#12 VSS#43 2.01577e-17
CB32 D#12 MX81/M0#s 9.52264e-18
CB33 D#11 VSS#43 3.90034e-18
CB34 MX76/M0#g VSS#43 3.02836e-18
CB35 MX84/M0#g MX84/M0#s 8.69011e-18
CB36 MX84/M0#g VDD#20 3.77064e-18
CB37 MX84/M0#g VDD#46 3.05429e-18
CB38 MX84/M0#g VDD 1.43761e-17
RgB10 MX84/M0#g D#8 620.612427 $L=1.99 $W=0.15
RgB11 D#8 D#9 34.134449 $L=0.1645 $W=0.27
RgB12 D#9 MX76/M0#g 104.477959 $L=0.325 $W=0.15
RfB13 D#10 D#11 1.129412 $L=0.015 $W=0.17
ReB14 D D#12 0.052885 $L=0.11 $W=0.26
RjB15 D#10 D#12 152.000000 $A=0.0289
RiB16 D#8 D#11 15.000000 $A=0.0289
*
*|NET Q 1.12834e-15
*|P (Q X 0 11.9750 2.1100)
*|I (MX102/M0#d MX102/M0 d X 0 11.0505 0.8000)
*|I (MX102/M1#s MX102/M1 s X 0 11.3295 0.8000)
*|I (MX102/M2#d MX102/M2 d X 0 11.9105 0.8000)
*|I (MX102/M3#s MX102/M3 s X 0 12.1895 0.8000)
*|I (MX101/M0#d MX101/M0 d X 0 11.0505 3.2400)
*|I (MX101/M1#s MX101/M1 s X 0 11.3295 3.2400)
*|I (MX101/M2#d MX101/M2 d X 0 11.9105 3.2400)
*|I (MX101/M3#s MX101/M3 s X 0 12.1895 3.2400)
*|S (Q#2 11.1900 3.2400)
*|S (Q#3 11.1900 3.2300)
*|S (Q#4 11.1900 1.0050)
*|S (Q#6 11.1900 0.8000)
*|S (Q#8 12.0500 3.2400)
*|S (Q#9 12.0500 3.2300)
*|S (Q#10 12.0500 1.0050)
*|S (Q#12 12.0500 0.8000)
*|S (Q#13 11.1900 3.2300)
*|S (Q#14 11.1900 1.8850)
*|S (Q#15 11.1900 1.0050)
*|S (Q#16 11.9600 1.8850)
*|S (Q#17 11.9975 1.1495)
*|S (Q#18 12.0500 1.0050)
*|S (Q#19 11.9975 2.9050)
*|S (Q#20 12.0500 3.2300)
CC1 MX102/M2#d VSS 4.90833e-18
CC2 MX102/M0#d VSS 6.20988e-18
CC3 Q#19 VSS 4.39773e-18
CC4 Q#17 VSS 4.73512e-17
CC5 Q#15 VSS 3.26977e-17
CC6 Q#14 VSS 7.29772e-18
CC7 Q#13 VSS 2.74133e-19
CC8 Q#4 VSS 7.15373e-18
CC9 Q#3 VSS 9.24415e-19
CC10 Q#10 VSS 8.317e-18
CC11 Q#9 VSS 3.55296e-18
CC12 Q VSS 5.61305e-18
CC13 Q#9 10#40 3.7534e-18
CC14 Q#3 10#41 3.30103e-18
CC15 Q#3 10#42 2.92749e-18
CC16 Q#13 10#36 2.78746e-18
CC17 Q#4 10#37 2.47015e-18
CC18 Q#19 10#40 2.2611e-18
CC19 Q#9 10 2.04941e-18
CC20 Q#4 10#44 2.00499e-18
CC21 Q#13 10#43 1.9943e-18
CC22 Q#14 10#44 1.86648e-18
CC23 Q#15 10#37 1.71857e-18
CC24 Q 10#41 1.68908e-18
CC25 Q#14 10#41 3.87074e-17
CC26 Q#15 10#44 3.04648e-17
CC27 Q#14 10#43 3.48919e-17
CC28 Q#13 10#42 4.17229e-17
CC29 Q 10#40 4.0881e-17
CC30 MX102/M2#d MX102/M2#g 3.93564e-18
CC31 MX102/M0#d MX102/M1#g 3.93564e-18
CC32 MX102/M0#d MX102/M0#g 3.93564e-18
CC33 MX102/M2#d MX102/M3#g 3.9256e-18
CC34 Q#14 MX101/M1#g 3.6165e-18
CC35 Q#14 MX102/M1#g 2.78921e-18
CC36 Q#17 9#53 2.73562e-18
CC37 Q#19 MX101/M3#g 2.4569e-18
CC38 Q#13 MX101/M0#g 2.29874e-18
CC39 Q#4 MX102/M1#g 2.28874e-18
CC40 Q#4 MX102/M0#g 2.28874e-18
CC41 Q#10 MX102/M3#g 2.28874e-18
CC42 Q#10 MX102/M2#g 2.28874e-18
CC43 Q#13 MX101/M1#g 2.22084e-18
CC44 Q#3 MX74/M0#g 2.19542e-18
CC45 Q#3 MX101/M2#g 2.04941e-18
CC46 Q#9 MX101/M1#g 2.04941e-18
CC47 Q#15 MX102/M1#g 1.46598e-18
CC48 Q#15 MX102/M0#g 1.41805e-18
CC49 Q#19 MX101/M2#g 1.01155e-18
CC50 Q#17 MX102/M3#g 9.37775e-19
CC51 MX102/M0#d MX79/M0#g 8.90997e-19
CC52 MX102/M2#d MX102/M1#g 8.31742e-19
CC53 MX102/M0#d MX102/M2#g 8.31742e-19
CC54 Q#10 9#53 1.13266e-17
CC55 Q#3 MX101/M0#g 9.70981e-18
CC56 Q#3 MX101/M1#g 9.70981e-18
CC57 Q#4 9#53 1.03852e-17
CC58 Q#9 MX101/M2#g 9.7098e-18
CC59 Q 9#53 3.67439e-17
CC60 Q#9 MX101/M3#g 9.70981e-18
CC61 Q#14 9#53 3.94883e-17
CC62 Q#17 VSS#8 4.33155e-18
CC63 Q MX102/M1#d 2.78056e-18
CC64 Q#15 VSS#4 2.77186e-18
CC65 Q#15 VSS#8 2.75978e-18
CC66 MX102/M2#d VSS#8 2.40864e-18
CC67 MX102/M0#d VSS#4 2.40864e-18
CC68 MX102/M0#d VSS#8 2.38515e-18
CC69 MX102/M2#d VSS#7 2.38515e-18
CC70 Q#15 MX102/M0#s 6.96807e-18
CC71 Q#17 MX102/M1#d 9.83916e-18
CC72 Q#4 MX102/M0#s 5.7068e-18
CC73 Q#4 MX102/M1#d 5.7068e-18
CC74 MX102/M0#d MX102/M1#d 1.51418e-17
CC75 MX102/M2#d MX102/M1#d 1.50489e-17
CC76 Q#10 MX102/M3#d 8.2852e-18
CC77 Q#17 MX102/M3#d 6.68644e-18
CC78 MX102/M0#d MX102/M0#s 1.51418e-17
CC79 MX102/M2#d MX102/M3#d 1.60862e-17
CC80 Q#15 MX102/M1#d 6.75461e-18
CC81 Q#10 MX102/M1#d 5.65689e-18
CC82 Q MX101/M1#d 5.13056e-18
CC83 Q#19 VDD#8 4.94586e-18
CC84 Q#14 MX101/M1#d 3.2881e-18
CC85 Q#19 VDD#7 3.13895e-18
CC86 Q#13 VDD#4 3.06534e-18
CC87 Q#13 VDD#8 3.05239e-18
CC88 Q#3 VDD#4 2.94877e-18
CC89 Q#9 VDD#8 2.94877e-18
CC90 Q#3 VDD#8 2.92e-18
CC91 Q#3 VDD 1.24509e-17
CC92 Q#9 VDD 1.25594e-17
CC93 Q#19 MX101/M1#d 1.57286e-17
CC94 Q#9 MX103/M0#s 3.25732e-17
CC95 Q#19 VDD 4.41495e-17
CC96 Q#3 MX101/M1#d 3.25732e-17
CC97 Q#19 MX103/M0#s 1.16584e-17
CC98 Q#14 VDD 9.9839e-18
CC99 Q#13 VDD 3.52175e-17
CC100 Q#13 MX101/M0#s 1.13386e-17
CC101 Q VDD 1.17434e-17
CC102 Q#3 MX101/M0#s 3.25732e-17
CC103 Q#13 MX101/M1#d 1.02993e-17
CC104 Q#9 MX101/M1#d 3.2311e-17
CC105 Q#19 QN#3 2.78139e-18
CC106 Q#10 QN#4 2.46565e-18
CC107 Q#9 QN#13 2.25838e-18
CC108 Q QN#13 1.69782e-18
CC109 Q#17 QN#4 1.66641e-18
CC110 Q#19 QN#13 4.20274e-17
CC111 Q#17 QN#15 3.21334e-17
CC112 Q QN#14 3.17991e-17
RfC17 Q#2 Q#3 0.752941 $L=0.01 $W=0.17
RfC18 Q#4 Q#6 15.435294 $L=0.205 $W=0.17
RfC19 Q#8 Q#9 0.752941 $L=0.01 $W=0.17
RfC20 Q#10 Q#12 15.435294 $L=0.205 $W=0.17
ReC21 Q#13 Q#14 0.726194 $L=1.345 $W=0.23
ReC22 Q#14 Q#15 0.473476 $L=0.88 $W=0.23
ReC23 Q#14 Q#16 0.313233 $L=0.77 $W=0.23
ReC24 Q#16 Q#17 0.349453 $L=0.735 $W=0.26
ReC25 Q#17 Q#18 0.060608 $L=0.1445 $W=0.335
ReC26 Q#16 Q 0.104168 $L=0.225 $W=0.26
ReC27 Q Q#19 0.382305 $L=0.795 $W=0.26
ReC28 Q#19 Q#20 0.127772 $L=0.3245 $W=0.335
RhC29 MX102/M0#d Q#6 15.000000 $A=0.0289
RhC30 MX102/M2#d Q#12 15.000000 $A=0.0289
Rh_2_C31 MX101/M0#d Q#2 15.000000 $A=0.0289
Rh_2_C32 MX101/M2#d Q#8 15.000000 $A=0.0289
RjC33 Q#3 Q#13 76.000000 $A=0.0578
RjC34 Q#4 Q#15 152.000000 $A=0.0289
RjC35 Q#10 Q#18 152.000000 $A=0.0289
RjC36 Q#9 Q#20 76.000000 $A=0.0578
RmwC37 MX102/M1#s MX102/M0#d 0.001000 $W=1000000
RmwC38 MX102/M3#s MX102/M2#d 0.001000 $W=1000000
RmwC39 MX101/M1#s MX101/M0#d 0.001000 $W=1000000
RmwC40 MX101/M3#s MX101/M2#d 0.001000 $W=1000000
*
*|NET 1 1.85159e-15
*|I (MX94/M0#g MX94/M0 g X 0 1.3350 0.8000)
*|I (MX87/M0#g MX87/M0 g X 0 5.8450 0.8000)
*|I (MX82/M0#g MX82/M0 g X 0 2.6250 0.8000)
*|I (MX81/M0#d MX81/M0 d X 0 0.3995 0.8000)
*|I (MX88/M0#g MX88/M0 g X 0 1.7650 3.2800)
*|I (MX75/M0#g MX75/M0 g X 0 5.0250 3.2800)
*|I (MX72/M0#g MX72/M0 g X 0 2.6250 3.2800)
*|I (MX71/M0#d MX71/M0 d X 0 0.3995 3.2800)
*|S (1 1.7650 3.2800)
*|S (1#22 1.7650 1.9700)
*|S (1#23 1.5500 1.9700)
*|S (1#24 1.3350 1.9700)
*|S (1#25 2.6500 2.8295)
*|S (1#26 2.6500 2.6800)
*|S (1#27 2.7350 1.9700)
*|S (1#28 2.7350 1.8050)
*|S (1#29 2.6500 1.2595)
*|S (1#30 2.6500 1.1100)
*|S (1#31 4.9900 2.8295)
*|S (1#32 4.9900 2.6800)
*|S (1#33 4.9450 2.1345)
*|S (1#34 4.9450 1.9700)
*|S (1#35 5.7850 1.5850)
*|S (1#36 5.7850 1.7500)
*|S (1#38 0.2600 3.2800)
*|S (1#39 0.2600 3.1750)
*|S (1#40 0.2600 0.8500)
*|S (1#42 0.2600 0.8000)
*|S (1#43 5.7850 1.7500)
*|S (1#44 4.9450 1.9700)
*|S (1#45 2.7350 1.9700)
*|S (1#46 1.5500 1.9700)
*|S (1#47 0.2600 1.9700)
*|S (1#48 0.2600 3.1750)
*|S (1#49 0.2600 1.9700)
*|S (1#50 0.2600 0.8500)
CI1 MX72/M0#g VSS 5.10568e-18
CI2 MX75/M0#g VSS 5.02266e-18
CI3 MX81/M0#d VSS 1.05864e-17
CI4 MX82/M0#g VSS 2.04066e-17
CI5 MX87/M0#g VSS 3.89459e-17
CI6 MX94/M0#g VSS 2.0049e-17
CI7 1#50 VSS 3.6142e-17
CI8 1#49 VSS 2.74902e-17
CI9 1#48 VSS 5.70149e-18
CI10 1#46 VSS 4.21457e-17
CI11 1#45 VSS 3.83033e-17
CI12 1#44 VSS 3.95104e-17
CI13 1#43 VSS 1.89282e-17
CI14 1#47 VSS 2.94142e-17
CI15 1#39 VSS 1.07993e-18
CI16 1 VSS 1.69322e-17
CI17 1#50 44 1.47047e-18
CI18 1#46 44 4.52746e-18
CI19 MX94/M0#g 44 6.21439e-18
CI20 1#44 22#27 1.01912e-16
CI21 1#43 22#23 2.03486e-17
CI22 1#44 22#23 1.79173e-17
CI23 1#43 22#24 1.34855e-17
CI24 MX75/M0#g 5#23 6.79664e-18
CI25 1#43 5#30 1.2037e-17
CI26 1#44 5#30 4.1438e-17
CI27 MX75/M0#g 4#16 6.79664e-18
CI28 1#45 4#27 2.74763e-18
CI29 1#45 4 1.84158e-18
CI30 1#44 4#28 1.69113e-18
CI31 MX75/M0#g 4#28 1.44948e-18
CI32 MX72/M0#g 4#13 1.34116e-18
CI33 1#44 4#18 3.22947e-17
CI34 1#46 4#22 1.06532e-17
CI35 1#44 4#17 6.34045e-17
CI36 1#45 4#18 7.64327e-17
CI37 1#45 4#22 6.61183e-17
CI38 1#44 4#29 2.4157e-17
CI39 MX72/M0#g 3#27 8.10963e-18
CI40 MX82/M0#g MX82/M0#d 7.13214e-18
CI41 MX72/M0#g 3#34 6.92662e-18
CI42 MX82/M0#g 3#31 6.9216e-18
CI43 1#46 MX92/M0#g 2.98254e-18
CI44 MX82/M0#g 3#39 2.04372e-18
CI45 1#44 3#34 1.72852e-18
CI46 MX72/M0#g 3#36 1.65758e-18
CI47 MX75/M0#g 3#33 9.54752e-18
CI48 1#45 3#37 2.59743e-17
CI49 1 3#35 9.27672e-18
CI50 1#46 3#35 3.37785e-17
CI51 1#46 3#32 1.3405e-17
CI52 1#45 3#38 1.55509e-17
CI53 1#45 3#34 1.92107e-17
CI54 1 2#13 6.80942e-18
CI55 MX94/M0#g MX94/M0#d 6.2356e-18
CI56 1#49 2#22 2.89254e-18
CI57 1#45 2#21 2.57308e-18
CI58 1#50 2#23 2.06008e-18
CI59 1#46 2#21 2.03795e-18
CI60 1#45 2 1.99222e-18
CI61 1#46 MX94/M0#d 1.95242e-18
CI62 1#45 2#18 3.02706e-17
CI63 1#45 2#20 8.04196e-18
CI64 1#46 2#22 1.99991e-17
CI65 1#45 2#17 3.26037e-17
CI66 1#46 2#23 2.74253e-17
CI67 MX82/M0#g MX82/M0#s 7.57466e-18
CI68 1#50 MX81/M0#s 6.78357e-18
CI69 MX94/M0#g VSS#19 5.74683e-18
CI70 MX81/M0#d VSS#43 5.64727e-18
CI71 1#46 VSS#43 5.42329e-18
CI72 MX82/M0#g VSS#43 4.8201e-18
CI73 MX94/M0#g VSS#43 4.8201e-18
CI74 MX81/M0#d VSS#20 4.62862e-18
CI75 1#47 VSS#43 4.49278e-18
CI76 MX82/M0#g VSS#18 3.64084e-18
CI77 MX87/M0#g VSS#14 3.39703e-18
CI78 1#50 VSS#20 3.18629e-18
CI79 1#50 VSS#43 2.07771e-17
CI80 MX81/M0#d MX81/M0#s 2.02978e-17
RgI194 1 1#22 392.513397 $L=1.31 $W=0.15
RgI195 1#22 1#23 39.939335 $L=0.215 $W=0.27
RgI196 1#23 1#24 39.939335 $L=0.215 $W=0.27
RgI197 1#24 MX94/M0#g 347.526733 $L=1.17 $W=0.15
RgI198 MX72/M0#g 1#25 144.660248 $L=0.45 $W=0.15
RgI199 1#25 1#26 42.359867 $L=0.149 $W=0.18
RgI200 1#26 1#27 214.089539 $L=0.71 $W=0.15
RgI201 1#27 1#28 38.857975 $L=0.1645 $W=0.27
RgI202 1#28 1#29 175.231552 $L=0.545 $W=0.15
RgI203 1#29 1#30 42.359867 $L=0.149 $W=0.18
RgI204 1#30 MX82/M0#g 99.673584 $L=0.31 $W=0.15
RgI205 MX75/M0#g 1#31 144.654770 $L=0.45 $W=0.15
RgI206 1#31 1#32 45.704208 $L=0.149 $W=0.17
RgI207 1#32 1#33 175.226074 $L=0.545 $W=0.15
RgI208 1#33 1#34 34.134449 $L=0.1645 $W=0.27
RgI209 MX87/M0#g 1#35 252.291290 $L=0.785 $W=0.15
RgI210 1#35 1#36 38.857975 $L=0.1645 $W=0.27
RfI211 1#38 1#39 7.905882 $L=0.105 $W=0.17
RfI212 1#40 1#42 3.764706 $L=0.05 $W=0.17
RfI213 1#43 1#44 68.515221 $L=1.06 $W=0.17
RfI214 1#44 1#45 166.399994 $L=2.21 $W=0.17
RfI215 1#45 1#46 89.223526 $L=1.185 $W=0.17
RfI216 1#46 1#47 97.129410 $L=1.29 $W=0.17
ReI217 1#48 1#49 0.654891 $L=1.205 $W=0.23
ReI218 1#49 1#50 0.608696 $L=1.12 $W=0.23
RhI219 MX81/M0#d 1#42 15.000000 $A=0.0289
Rh_2_I220 MX71/M0#d 1#38 15.000000 $A=0.0289
RjI221 1#39 1#48 152.000000 $A=0.0289
RjI222 1#47 1#49 152.000000 $A=0.0289
RjI223 1#40 1#50 152.000000 $A=0.0289
RiI224 1#36 1#43 15.000000 $A=0.0289
RiI225 1#34 1#44 15.000000 $A=0.0289
RiI226 1#27 1#45 15.000000 $A=0.0289
RiI227 1#23 1#46 15.000000 $A=0.0289
RmwI228 MX88/M0#g 1 0.001000 $W=1000000
*
*|NET RN 4.9709e-16
*|P (RN X 0 6.9150 2.1450)
*|I (MX83/M0#g MX83/M0 g X 0 7.1350 0.8000)
*|I (MX89/M0#g MX89/M0 g X 0 7.2650 3.2800)
*|S (RN#8 7.2750 2.3100)
*|S (RN#9 7.1950 2.3100)
*|S (RN#10 7.1250 2.3100)
*|S (RN#11 7.1350 2.1445)
*|S (RN#12 7.1950 2.3100)
*|S (RN#13 6.9000 2.3100)
*|S (RN#14 6.9000 2.3100)
CE1 MX89/M0#g VSS 5.01114e-18
CE2 MX83/M0#g VSS 8.18138e-18
CE3 RN#12 VSS 4.22106e-18
CE4 RN#13 VSS 1.421e-18
CE5 RN VSS 4.22813e-17
CE6 RN#12 22#24 1.16836e-18
CE7 MX83/M0#g 22#24 1.16421e-18
CE8 RN#12 22#22 1.02967e-17
CE9 MX89/M0#g MX89/M0#d 1.51496e-17
CE10 RN#13 22#22 2.49224e-17
CE11 RN#13 22#23 1.04727e-17
CE12 RN MX89/M0#d 5.74029e-18
CE13 RN#13 22#24 5.27336e-18
CE14 RN 22#24 5.08434e-17
CE15 RN 22#23 1.37658e-17
CE16 RN 22#22 4.07454e-17
CE17 RN#12 MX83/M0#d 4.57029e-18
CE18 RN#12 MX89/M0#d 2.24899e-17
CE19 MX83/M0#g MX83/M0#d 8.52044e-18
CE20 MX89/M0#g 8#3 2.14444e-18
CE21 MX89/M0#g 8#6 2.14444e-18
CE22 RN#12 8#9 1.50794e-18
CE23 RN#12 8#8 1.14758e-18
CE24 RN#13 8#9 9.27159e-19
CE25 RN 8#9 5.30469e-17
CE26 RN#13 5#31 1.94126e-18
CE27 MX83/M0#g 5#30 2.54007e-18
CE28 RN#12 5#30 2.97569e-18
CE29 RN 5#28 5.55836e-18
CE30 RN 5#30 5.65389e-17
CE31 MX83/M0#g VSS#14 2.82502e-18
CE32 MX83/M0#g MX83/M0#s 7.79181e-18
CE33 MX89/M0#g VDD#14 3.77064e-18
CE34 MX89/M0#g MX89/M0#s 1.08875e-17
CE35 RN#13 VDD 6.83696e-18
CE36 RN MX89/M0#s 4.14862e-18
CE37 RN VDD 3.21822e-17
CE38 MX89/M0#g VDD 9.82165e-18
CE39 RN#12 VDD 1.21145e-17
RgE63 MX89/M0#g RN#8 275.749603 $L=0.97 $W=0.15
RgE64 RN#8 RN#9 18.279650 $L=0.08 $W=0.33
RgE65 RN#9 RN#10 17.808115 $L=0.07 $W=0.33
RgE66 RN#10 RN#11 18.145664 $L=0.165 $W=0.15
RgE67 RN#11 MX83/M0#g 433.100525 $L=1.3445 $W=0.15
RfE68 RN#12 RN#13 22.211765 $L=0.295 $W=0.17
ReE69 RN RN#14 0.079327 $L=0.165 $W=0.26
RjE70 RN#13 RN#14 152.000000 $A=0.0289
RiE71 RN#9 RN#12 15.000000 $A=0.0289
*
*|NET CK 5.36739e-16
*|P (CK X 0 0.9350 2.7850)
*|I (MX81/M0#g MX81/M0 g X 0 0.4750 0.8000)
*|I (MX71/M0#g MX71/M0 g X 0 0.4750 3.2800)
*|S (CK#8 0.4750 2.6500)
*|S (CK#9 0.4750 2.4850)
*|S (CK#10 0.9050 2.6500)
*|S (CK#11 0.4750 2.6500)
*|S (CK#12 0.9050 2.6500)
*|S (CK#13 0.9200 2.6500)
*|S (CK#14 0.9200 2.7850)
CA1 MX71/M0#g VSS 2.68139e-18
CA2 MX81/M0#g VSS 1.54396e-17
CA3 CK#14 VSS 3.53118e-18
CA4 CK#13 VSS 2.9944e-19
CA5 CK#11 VSS 8.12833e-19
CA6 CK#10 VSS 6.38421e-19
CA7 MX71/M0#g 46 2.47464e-18
CA8 CK#10 46 6.03731e-18
CA9 CK#14 46 2.36395e-17
CA10 CK#10 3#35 1.69534e-17
CA11 CK#13 3#35 1.0819e-17
CA12 CK#13 2#22 3.60722e-17
CA13 CK#14 2#21 6.53999e-18
CA14 CK#14 2#13 3.32426e-18
CA15 CK#14 2#22 3.87008e-17
CA16 CK#10 2#22 2.84509e-18
CA17 MX81/M0#g 1#50 2.01875e-18
CA18 CK#10 1#46 3.76383e-18
CA19 CK#14 1#39 5.31343e-18
CA20 CK#13 1#46 3.8017e-18
CA21 CK#14 1#48 3.60069e-17
CA22 CK#10 1#47 5.25208e-18
CA23 CK#11 1#47 1.13243e-17
CA24 CK#13 1#49 2.61728e-17
CA25 MX71/M0#g 1#47 2.90171e-18
CA26 CK#11 1#39 5.88905e-18
CA27 CK#11 1#49 7.94053e-18
CA28 MX71/M0#g 1#39 8.88823e-18
CA29 CK#13 1#48 7.30992e-18
CA30 CK#11 1#48 1.67951e-17
CA31 CK#13 1#47 3.28652e-18
CA32 MX81/M0#g MX81/M0#d 8.12962e-18
CA33 MX81/M0#g 1#47 4.48516e-18
CA34 MX81/M0#g VSS#19 4.22131e-18
CA35 MX81/M0#g VSS#43 4.8201e-18
CA36 MX81/M0#g MX81/M0#s 8.41205e-18
CA37 CK#14 VDD 2.64842e-18
CA38 CK#10 VDD#46 1.34719e-18
CA39 CK#10 MX84/M0#s 1.40171e-17
CA40 CK#11 VDD 1.34594e-17
CA41 MX71/M0#g MX84/M0#s 1.0183e-17
CA42 MX71/M0#g VDD#20 3.77064e-18
CA43 MX71/M0#g VDD#46 5.21861e-18
CA44 CK#11 MX84/M0#s 1.41081e-17
CA45 CK#14 VDD#46 2.29441e-17
CA46 CK#10 VDD 6.65466e-18
CA47 CK#13 VDD 5.2986e-18
CA48 MX71/M0#g VDD 1.39295e-17
CA49 CK#14 VDD#20 3.52631e-18
CA50 CK#14 MX84/M0#s 2.37832e-17
CA51 CK#11 VDD#46 2.69594e-18
CA52 MX81/M0#g D#11 2.9796e-18
CA53 CK#10 MX84/M0#g 4.60298e-18
CA54 CK#13 D 3.80297e-17
RgA1 MX71/M0#g CK#8 183.599075 $L=0.63 $W=0.15
RgA2 CK#8 CK#9 34.134449 $L=0.1645 $W=0.27
RgA3 CK#9 MX81/M0#g 541.491272 $L=1.685 $W=0.15
RfA4 CK#10 CK#11 32.376472 $L=0.43 $W=0.17
ReA5 CK#12 CK#13 0.001512 $L=0.015 $W=1.24
ReA6 CK#14 CK 0.001512 $L=0.015 $W=1.24
ReA7 CK#13 CK#14 0.064904 $L=0.135 $W=0.26
RjA8 CK#10 CK#12 152.000000 $A=0.0289
RiA9 CK#8 CK#11 15.000000 $A=0.0289
*
*|NET 4 1.97931e-15
*|I (MX108/M0#d MX108/M0 d X 0 3.6505 0.8000)
*|I (MX99/M0#d MX99/M0 d X 0 3.9295 0.8000)
*|I (MX80/M0#s MX80/M0 s X 0 5.3395 0.8000)
*|I (MX77/M0#g MX77/M0 g X 0 2.1950 0.8000)
*|I (MX109/M0#d MX109/M0 d X 0 3.6595 3.2800)
*|I (MX97/M0#d MX97/M0 d X 0 4.6705 3.2800)
*|I (MX85/M0#g MX85/M0 g X 0 2.1950 3.2800)
*|I (MX75/M0#s MX75/M0 s X 0 4.9495 3.2800)
*|S (4 2.1950 3.2800)
*|S (4#8 2.2550 1.7945)
*|S (4#9 2.2550 1.6300)
*|S (4#10 2.2550 1.4650)
*|S (4#12 3.5200 3.2800)
*|S (4#13 3.5200 3.1750)
*|S (4#15 4.8100 3.2800)
*|S (4#16 4.8100 3.1750)
*|S (4#17 4.8100 1.6300)
*|S (4#18 3.7000 1.6300)
*|S (4#19 3.7450 1.0145)
*|S (4#21 3.7900 0.8000)
*|S (4#22 2.2550 1.6300)
*|S (4#23 5.2000 0.8000)
*|S (4#26 3.5200 3.1750)
*|S (4#27 3.6345 3.1625)
*|S (4#28 4.8100 3.1750)
*|S (4#29 4.8100 1.6300)
*|S (4#30 5.0850 0.8000)
*|S (4#31 5.2000 0.8000)
CL1 MX77/M0#g VSS 2.60352e-17
CL2 MX108/M0#d VSS 9.28551e-20
CL3 4#30 VSS 1.32884e-17
CL4 4#29 VSS 6.06458e-18
CL5 4#28 VSS 5.19079e-18
CL6 4#27 VSS 8.97128e-18
CL7 4#22 VSS 2.85761e-17
CL8 4#19 VSS 1.18318e-17
CL9 4#18 VSS 3.68944e-17
CL10 4#13 VSS 3.57928e-18
CL11 4#17 VSS 1.80548e-17
CL12 4#16 VSS 6.1473e-18
CL13 4#23 VSS 8.80934e-18
CL14 4 VSS 1.25439e-17
CL15 4#18 57#7 2.00243e-18
CL16 4#23 57#7 1.12889e-18
CL17 4#13 57#8 8.79443e-19
CL18 MX108/M0#d 57#7 8.27191e-19
CL19 4#30 57#3 8.26036e-19
CL20 4#19 57#8 1.58739e-17
CL21 4#19 57#3 2.89539e-17
CL22 4#18 57#8 5.04277e-18
CL23 4#19 57#7 1.04675e-17
CL24 4#30 57#7 1.54872e-17
CL25 4#18 57#3 3.95257e-18
CL26 4#19 57#6 2.10256e-17
CL27 4#30 57#6 4.59149e-18
CL28 4#13 52 2.47965e-17
CL29 4#27 52 2.15884e-17
CL30 4#19 MX99/M0#g 6.50491e-18
CL31 4#18 MX99/M0#g 4.21661e-18
CL32 4#27 22#27 1.70701e-18
CL33 4#28 22#27 1.0272e-17
CL34 4#29 22#27 1.60274e-17
CL35 4#17 5#30 7.30746e-18
CL36 4#30 MX87/M0#d 5.559e-18
CL37 4#16 5#31 3.94969e-18
CL38 4#28 5#23 3.86774e-18
CL39 4#28 5#31 1.00964e-16
CL40 4#16 5#23 2.27543e-17
CL41 4#30 5#30 1.97925e-17
CL42 4#30 5#32 3.41632e-17
CL43 4#29 5#31 1.71785e-17
CL44 4#23 MX87/M0#d 1.92565e-17
CL45 4#29 5#30 9.67102e-17
CL46 4#30 VSS#15 8.08535e-18
CL47 4#23 VSS#15 7.24561e-18
CL48 MX77/M0#g MX82/M0#s 7.15597e-18
CL49 4#19 VSS#4 5.99468e-18
CL50 4#19 VSS#43 5.87888e-18
CL51 4#23 VSS#43 5.06657e-18
CL52 MX77/M0#g VSS#18 4.87612e-18
CL53 MX77/M0#g VSS#43 4.8201e-18
CL54 4#30 VSS#43 3.60919e-17
CL55 4#30 MX93/M0#s 2.14016e-17
CL56 4#23 MX93/M0#s 1.50056e-17
RgL278 4 4#8 477.224640 $L=1.485 $W=0.15
RgL279 4#8 4#9 38.857975 $L=0.1645 $W=0.27
RgL280 4#9 4#10 29.410927 $L=0.1645 $W=0.27
RgL281 4#10 MX77/M0#g 213.731293 $L=0.665 $W=0.15
RfL282 4#12 4#13 7.905882 $L=0.105 $W=0.17
RfL283 4#15 4#16 7.905882 $L=0.105 $W=0.17
RfL284 4#17 4#18 83.086517 $L=1.11 $W=0.17
RfL285 4#18 4#19 41.081806 $L=0.615 $W=0.17
RfL286 4#19 4#21 11.574516 $L=0.2145 $W=0.26
RfL287 4#18 4#22 108.310051 $L=1.445 $W=0.17
ReL288 4#26 4#27 0.052350 $L=0.1145 $W=0.315
ReL289 4#27 4#28 0.621821 $L=1.175 $W=0.23
ReL290 4#28 4#29 0.839674 $L=1.545 $W=0.23
ReL291 4#29 4#30 0.529188 $L=1.075 $W=0.23
ReL292 4#30 4#31 0.053985 $L=0.1145 $W=0.29
RhL293 MX108/M0#d 4#21 15.000000 $A=0.0289
RhL294 MX80/M0#s 4#23 15.000000 $A=0.0289
Rh_2_L295 MX109/M0#d 4#12 15.000000 $A=0.0289
Rh_2_L296 MX97/M0#d 4#15 15.000000 $A=0.0289
RjL297 4#13 4#26 152.000000 $A=0.0289
RjL298 4#16 4#28 152.000000 $A=0.0289
RjL299 4#17 4#29 152.000000 $A=0.0289
RjL300 4#23 4#31 152.000000 $A=0.0289
RiL301 4#9 4#22 15.000000 $A=0.0289
RmwL302 MX99/M0#d MX108/M0#d 0.001000 $W=1000000
RmwL303 MX85/M0#g 4 0.001000 $W=1000000
RmwL304 MX75/M0#s MX97/M0#d 0.001000 $W=1000000
*
*|NET QN 1.04046e-15
*|P (QN X 0 13.8150 2.0250)
*|I (MX100/M0#d MX100/M0 d X 0 12.7705 0.8000)
*|I (MX100/M1#s MX100/M1 s X 0 13.0495 0.8000)
*|I (MX100/M2#d MX100/M2 d X 0 13.6305 0.8000)
*|I (MX100/M3#s MX100/M3 s X 0 13.9095 0.8000)
*|I (MX103/M0#d MX103/M0 d X 0 12.7705 3.2400)
*|I (MX103/M1#s MX103/M1 s X 0 13.0495 3.2400)
*|I (MX103/M2#d MX103/M2 d X 0 13.6305 3.2400)
*|I (MX103/M3#s MX103/M3 s X 0 13.9095 3.2400)
*|S (QN#2 12.9100 3.2400)
*|S (QN#3 12.9100 3.2300)
*|S (QN#4 12.9100 1.0050)
*|S (QN#6 12.9100 0.8000)
*|S (QN#8 13.7700 3.2400)
*|S (QN#9 13.7700 3.2300)
*|S (QN#10 13.7700 1.0050)
*|S (QN#12 13.7700 0.8000)
*|S (QN#13 12.9100 3.2300)
*|S (QN#14 12.9100 1.8850)
*|S (QN#15 12.9100 1.0050)
*|S (QN#16 13.7925 1.5600)
*|S (QN#17 13.7700 1.0050)
*|S (QN#18 13.7700 3.2300)
CD1 MX100/M2#d VSS 8.56171e-18
CD2 MX100/M0#d VSS 1.02151e-17
CD3 QN#16 VSS 8.43071e-17
CD4 QN#15 VSS 3.44338e-17
CD5 QN#14 VSS 1.33323e-17
CD6 QN#4 VSS 8.11271e-18
CD7 QN#3 VSS 2.68237e-18
CD8 QN#10 VSS 1.01864e-17
CD9 QN#9 VSS 2.92e-18
CD10 QN#16 MX100/M3#g 4.8697e-18
CD11 MX100/M2#d MX100/M3#g 4.45092e-18
CD12 QN#16 MX100/M2#g 4.4041e-18
CD13 QN#4 10#40 4.24783e-18
CD14 QN#10 10#40 4.24783e-18
CD15 MX100/M2#d MX100/M2#g 3.93564e-18
CD16 MX100/M0#d MX100/M1#g 3.93564e-18
CD17 MX100/M0#d MX100/M0#g 3.93564e-18
CD18 QN#16 MX103/M2#g 3.6165e-18
CD19 QN#14 MX103/M1#g 3.6165e-18
CD20 QN#3 10#40 3.30103e-18
CD21 QN#9 10#40 3.30103e-18
CD22 QN#18 MX103/M2#g 2.74301e-18
CD23 QN#14 MX100/M1#g 2.70006e-18
CD24 QN#10 MX100/M3#g 2.5459e-18
CD25 QN#13 MX103/M1#g 2.48802e-18
CD26 QN#13 10 2.48802e-18
CD27 QN#4 MX100/M1#g 2.28874e-18
CD28 QN#4 MX100/M0#g 2.28874e-18
CD29 QN#10 MX100/M2#g 2.28874e-18
CD30 QN#3 MX103/M2#g 2.04941e-18
CD31 QN#9 MX103/M1#g 2.04941e-18
CD32 QN#15 MX100/M1#g 1.53482e-18
CD33 QN#3 MX103/M1#g 9.70981e-18
CD34 QN#3 10 9.70981e-18
CD35 QN#14 10#40 5.44697e-17
CD36 QN#18 MX103/M3#g 7.02747e-18
CD37 QN#16 10#40 3.14805e-17
CD38 QN#9 MX103/M2#g 9.70981e-18
CD39 QN#9 MX103/M3#g 1.08008e-17
CD40 QN 10#40 1.95081e-17
CD41 QN#14 9#53 6.78247e-18
CD42 QN#14 MX100/M1#d 3.74544e-18
CD43 QN#16 VSS#6 3.46912e-18
CD44 QN#16 VSS#4 3.41038e-18
CD45 QN#15 VSS#7 2.77186e-18
CD46 QN#15 VSS#6 2.75978e-18
CD47 MX100/M0#d VSS#7 2.40864e-18
CD48 MX100/M2#d VSS#6 2.40864e-18
CD49 QN#4 MX100/M1#d 8.2852e-18
CD50 QN#15 MX100/M1#d 7.13135e-18
CD51 QN#4 MX102/M3#d 8.2852e-18
CD52 QN#10 MX100/M3#d 8.23629e-18
CD53 MX100/M2#d MX100/M3#d 1.51018e-17
CD54 QN#16 MX100/M1#d 1.15866e-17
CD55 QN#10 MX100/M1#d 8.2852e-18
CD56 QN#15 MX102/M3#d 6.31389e-18
CD57 MX100/M2#d MX100/M1#d 1.51418e-17
CD58 MX100/M0#d MX102/M3#d 1.51418e-17
CD59 MX100/M0#d MX100/M1#d 1.51418e-17
CD60 QN#16 MX100/M3#d 1.0419e-17
CD61 QN#16 MX103/M1#d 4.22688e-18
CD62 QN#14 MX103/M1#d 4.20933e-18
CD63 QN#18 VDD#6 3.06534e-18
CD64 QN#13 VDD#7 3.06534e-18
CD65 QN#18 VDD#4 3.05239e-18
CD66 QN#13 VDD#6 3.05239e-18
CD67 QN#3 VDD#7 2.94877e-18
CD68 QN#9 VDD#6 2.94877e-18
CD69 QN#3 VDD#6 2.92e-18
CD70 QN#13 MX103/M0#s 1.16067e-17
CD71 QN#18 VDD 5.5908e-17
CD72 QN#3 VDD 1.25928e-17
CD73 QN#13 MX103/M1#d 1.16067e-17
CD74 QN#14 VDD 8.38111e-18
CD75 QN#9 VDD 1.39146e-17
CD76 QN#13 VDD 3.56766e-17
CD77 QN#3 MX103/M1#d 3.25732e-17
CD78 QN#18 MX103/M1#d 1.26816e-17
CD79 QN#18 MX103/M3#d 1.69911e-17
CD80 QN#3 MX103/M0#s 3.25732e-17
CD81 QN#9 MX103/M1#d 3.25732e-17
CD82 QN VDD 2.73313e-17
CD83 QN#9 MX103/M3#d 3.24147e-17
RfD41 QN#2 QN#3 0.752941 $L=0.01 $W=0.17
RfD42 QN#4 QN#6 15.435294 $L=0.205 $W=0.17
RfD43 QN#8 QN#9 0.752941 $L=0.01 $W=0.17
RfD44 QN#10 QN#12 15.435294 $L=0.205 $W=0.17
ReD45 QN#13 QN#14 0.726194 $L=1.345 $W=0.23
ReD46 QN#14 QN#15 0.473476 $L=0.88 $W=0.23
ReD47 QN#14 QN#16 0.450501 $L=0.8825 $W=0.23
ReD48 QN#16 QN#17 0.100860 $L=0.555 $W=0.275
ReD49 QN#16 QN 0.059951 $L=0.465 $W=0.275
ReD50 QN QN#18 0.547727 $L=1.205 $W=0.275
RhD51 MX100/M0#d QN#6 15.000000 $A=0.0289
RhD52 MX100/M2#d QN#12 15.000000 $A=0.0289
Rh_2_D53 MX103/M0#d QN#2 15.000000 $A=0.0289
Rh_2_D54 MX103/M2#d QN#8 15.000000 $A=0.0289
RjD55 QN#3 QN#13 76.000000 $A=0.0578
RjD56 QN#4 QN#15 152.000000 $A=0.0289
RjD57 QN#10 QN#17 152.000000 $A=0.0289
RjD58 QN#9 QN#18 76.000000 $A=0.0578
RmwD59 MX100/M1#s MX100/M0#d 0.001000 $W=1000000
RmwD60 MX100/M3#s MX100/M2#d 0.001000 $W=1000000
RmwD61 MX103/M1#s MX103/M0#d 0.001000 $W=1000000
RmwD62 MX103/M3#s MX103/M2#d 0.001000 $W=1000000
*
*|NET 44 1.18238e-16
*|I (MX94/M0#s MX94/M0 s X 0 1.2595 0.8000)
*|I (MX76/M0#d MX76/M0 d X 0 0.9805 0.8000)
*|S (44 1.1200 0.8000)
CR1 44 VSS 7.72972e-18
CR2 44 MX81/M0#s 2.10289e-17
CR3 44 VSS#19 6.01954e-18
CR4 44 VSS#43 7.45755e-18
RmwR432 MX94/M0#s 44 0.001000 $W=1000000
RmwR433 MX76/M0#d 44 0.001000 $W=1000000
*
*|NET 46 1.42659e-16
*|I (MX96/M0#s MX96/M0 s X 0 1.2595 3.2800)
*|I (MX84/M0#d MX84/M0 d X 0 0.9805 3.2800)
*|S (46 1.1200 3.3200)
CR5 46 VSS 2.41388e-17
RmwR434 MX96/M0#s 46 0.001000 $W=1000000
RmwR435 MX84/M0#d 46 0.001000 $W=1000000
*
*|NET 48 1.09551e-16
*|I (MX92/M0#s MX92/M0 s X 0 1.8405 0.8000)
*|I (MX77/M0#d MX77/M0 d X 0 2.1195 0.8000)
*|S (48 1.9800 0.8000)
CR6 48 VSS 1.23968e-17
CR7 48 VSS#18 6.01954e-18
CR8 48 MX82/M0#s 2.41195e-17
CR9 48 VSS#43 7.48732e-18
RmwR436 MX92/M0#s 48 0.001000 $W=1000000
RmwR437 MX77/M0#d 48 0.001000 $W=1000000
*
*|NET 50 1.36456e-16
*|I (MX88/M0#s MX88/M0 s X 0 1.8405 3.2800)
*|I (MX85/M0#d MX85/M0 d X 0 2.1195 3.2800)
*|S (50 1.9800 3.3200)
CR10 50 VSS 1.88021e-17
RmwR438 MX88/M0#s 50 0.001000 $W=1000000
RmwR439 MX85/M0#d 50 0.001000 $W=1000000
*
*|NET 52 1.35673e-16
*|I (MX109/M0#s MX109/M0 s X 0 3.8105 3.2800)
*|I (MX86/M0#d MX86/M0 d X 0 4.0895 3.2800)
*|S (52 3.9500 3.3200)
CR11 52 VSS 1.33521e-17
RmwR440 MX109/M0#s 52 0.001000 $W=1000000
RmwR441 MX86/M0#d 52 0.001000 $W=1000000
*
*|NET 56 6.66798e-16
*|I (MX112/M0#s MX112/M0 s X 0 6.3505 0.8000)
*|I (MX91/M0#s MX91/M0 s X 0 8.1395 0.8000)
*|I (MX78/M0#d MX78/M0 d X 0 6.6295 0.8000)
*|S (56 6.4900 0.8000)
*|S (56#2 6.4900 0.8000)
*|S (56#3 6.4900 0.6550)
*|S (56#5 8.0000 0.8000)