*
*|DSPF 1.5
*
*|DATE "Fri Feb 28 13:32:05 2025"
*|VENDOR "Cadence Design Systems"
*|PROGRAM "Cadence Quantus Extraction"
*|VERSION "22.1.0-p089 Linux 64 bit - (Thu Jan 19 11:47:08 PST 2023)"
*|DESIGN "DFFSX1_LP"
*|DIVIDER /
*|DELIMITER #
*|DeviceFingerDelim "@"
*|BUSBIT []
*|GLOBAL_TEMPERATURE 25
*|OPERATING_TEMPERATURE 25
** QRC_TECH_DIR /vols/wfo_devel/projects/reference_SKY130/tech/sky130_release_0.0.4/quantus/extraction/typical 
** HIERARCHICAL_SPLIT_PINS_DELIMITER '%'
** caps2d version: 10
*
.SUBCKT  DFFSX1_LP CK D Q QN SN VDD VSS
*
*Net Section
*
*|GROUND_NET VSS
*
*|NET 12 2.2688e-15
*|I (MX70/M0#g MX70/M0 g X 0 4.4350 0.8000)
*|I (MX69/M0#g MX69/M0 g X 0 1.7650 0.8000)
*|I (MX66/M0#d MX66/M0 d X 0 2.7005 0.8000)
*|I (MX72/M0#g MX72/M0 g X 0 1.3350 3.2800)
*|I (MX57/M0#d MX57/M0 d X 0 2.7005 3.2800)
*|I (MM1#g MM1 g X 0 4.8650 3.2800)
*|S (12 1.3350 3.2800)
*|S (12#15 1.3350 2.6745)
*|S (12#16 1.3350 2.5100)
*|S (12#17 1.7550 1.1250)
*|S (12#18 1.7550 1.2900)
*|S (12#19 4.4350 1.1250)
*|S (12#20 4.4350 1.2900)
*|S (12#21 4.8650 2.8145)
*|S (12#22 4.8650 2.6500)
*|S (12#24 2.8400 3.2800)
*|S (12#25 2.8800 2.7345)
*|S (12#26 2.8000 2.6500)
*|S (12#27 1.4195 2.6500)
*|S (12#28 1.3350 2.5100)
*|S (12#29 5.0800 2.6500)
*|S (12#30 4.8650 2.6500)
*|S (12#31 5.0800 1.2900)
*|S (12#32 4.4350 1.2900)
*|S (12#33 2.8000 1.2900)
*|S (12#35 2.8400 0.8000)
*|S (12#36 1.7550 1.2900)
*|S (12#37 2.8000 2.6500)
*|S (12#38 2.8000 1.2900)
*|S (12#39 5.0800 2.6500)
*|S (12#40 5.0800 1.2900)
CO1 MM1#g VSS 5.27855e-18
CO2 MX57/M0#d VSS 3.45943e-18
CO3 MX66/M0#d VSS 6.82684e-18
CO4 MX69/M0#g VSS 1.90724e-17
CO5 MX70/M0#g VSS 2.25762e-17
CO6 12#40 VSS 1.03206e-17
CO7 12#39 VSS 2.74874e-19
CO8 12#38 VSS 9.3664e-18
CO9 12#37 VSS 1.66551e-18
CO10 12#36 VSS 2.32121e-17
CO11 12#32 VSS 2.27595e-17
CO12 12#30 VSS 2.34788e-18
CO13 12#27 VSS 6.13238e-18
CO14 12#33 VSS 3.16891e-17
CO15 12#26 VSS 4.32376e-18
CO16 12#31 VSS 2.1285e-17
CO17 12#29 VSS 4.97586e-18
CO18 12 VSS 1.21389e-17
CO19 12#31 40 2.13602e-17
CO20 12#40 40 8.82903e-18
CO21 MX70/M0#g 40 1.28937e-18
CO22 MX70/M0#g 38 1.19523e-18
CO23 12#36 34 2.48809e-17
CO24 MX69/M0#g 34 6.21439e-18
CO25 12#32 38 2.44117e-17
CO26 12 36 1.50608e-18
CO27 12#27 36 1.82215e-17
CO28 12#36 VSS#27 5.91303e-18
CO29 MX66/M0#d VSS#27 5.74655e-18
CO30 12#32 VSS#27 4.92811e-18
CO31 MX69/M0#g VSS#11 4.87612e-18
CO32 MX70/M0#g VSS#4 4.87612e-18
CO33 MX70/M0#g VSS#27 4.8201e-18
CO34 12#31 VSS#27 4.47733e-18
CO35 12#32 VSS#4 3.77911e-18
CO36 MX66/M0#d VSS#11 3.48992e-18
CO37 MX69/M0#g VSS#27 3.117e-18
CO38 12#33 VSS#27 3.04821e-18
CO39 12#36 VSS#11 2.91829e-18
CO40 12#40 VSS#7 2.24474e-18
CO41 12#33 MX76/M0#s 2.28754e-17
CO42 12#40 VSS#27 1.19414e-17
CO43 MX66/M0#d MX74/M0#s 2.04578e-17
CO44 MX66/M0#d MX76/M0#s 1.33736e-17
CO45 12#33 MX74/M0#s 1.85014e-17
RgO248 12 12#15 194.451294 $L=0.605 $W=0.15
RgO249 12#15 12#16 34.134449 $L=0.1645 $W=0.27
RgO250 MX69/M0#g 12#17 104.477959 $L=0.325 $W=0.15
RgO251 12#17 12#18 34.134449 $L=0.1645 $W=0.27
RgO252 MX70/M0#g 12#19 104.477959 $L=0.325 $W=0.15
RgO253 12#19 12#20 34.134449 $L=0.1645 $W=0.27
RgO254 MM1#g 12#21 149.464630 $L=0.465 $W=0.15
RgO255 12#21 12#22 34.134449 $L=0.1645 $W=0.27
RfO256 12#24 12#25 41.048092 $L=0.545 $W=0.17
RfO257 12#25 12#26 4.341837 $L=0.0845 $W=0.25
RfO258 12#26 12#27 103.914085 $L=1.38 $W=0.17
RfO259 12#27 12#28 4.588319 $L=0.0845 $W=0.39
RfO260 12#29 12#30 16.188236 $L=0.215 $W=0.17
RfO261 12#31 12#32 48.564705 $L=0.645 $W=0.17
RfO262 12#32 12#33 123.105881 $L=1.635 $W=0.17
RfO263 12#33 12#35 36.894119 $L=0.49 $W=0.17
RfO264 12#33 12#36 78.682358 $L=1.045 $W=0.17
ReO265 12#37 12#38 0.739130 $L=1.36 $W=0.23
ReO266 12#39 12#40 0.739130 $L=1.36 $W=0.23
RhO267 MX66/M0#d 12#35 15.000000 $A=0.0289
Rh_2_O268 MX57/M0#d 12#24 15.000000 $A=0.0289
RjO269 12#26 12#37 152.000000 $A=0.0289
RjO270 12#33 12#38 152.000000 $A=0.0289
RjO271 12#29 12#39 152.000000 $A=0.0289
RjO272 12#31 12#40 152.000000 $A=0.0289
RiO273 12#16 12#28 15.000000 $A=0.0289
RiO274 12#22 12#30 15.000000 $A=0.0289
RiO275 12#20 12#32 15.000000 $A=0.0289
RiO276 12#18 12#36 15.000000 $A=0.0289
RmwO277 MX72/M0#g 12 0.001000 $W=1000000
*
*|NET 3 1.87145e-15
*|I (MX84/M0#d MX84/M0 d X 0 4.0805 0.8000)
*|I (MX74/M0#g MX74/M0 g X 0 2.1950 0.8000)
*|I (MX70/M0#s MX70/M0 s X 0 4.3595 0.8000)
*|I (MX81/M0#d MX81/M0 d X 0 4.0805 3.2800)
*|I (MX80/M0#s MX80/M0 s X 0 4.3595 3.2800)
*|I (MX78/M0#g MX78/M0 g X 0 2.1950 3.2800)
*|I (MX58/M0#d MX58/M0 d X 0 3.4995 3.2800)
*|S (3 2.1950 3.2800)
*|S (3#8 2.2350 1.6300)
*|S (3#9 2.2350 1.4650)
*|S (3#10 2.4100 1.6300)
*|S (3#11 2.2350 1.6300)
*|S (3#12 3.3600 3.4700)
*|S (3#14 3.3600 3.2800)
*|S (3#16 4.2200 3.2800)
*|S (3#17 4.2200 3.0900)
*|S (3#18 4.2200 0.8500)
*|S (3#20 4.2200 0.8000)
*|S (3#21 3.3600 3.4700)
*|S (3#22 4.2200 3.0900)
*|S (3#23 4.2200 0.8500)
*|S (3#24 2.4100 1.6300)
CJ1 MX58/M0#d VSS 2.27194e-18
CJ2 MX81/M0#d VSS 3.4409e-18
CJ3 MX74/M0#g VSS 1.9704e-17
CJ4 MX84/M0#d VSS 3.60072e-18
CJ5 3#24 VSS 1.26641e-17
CJ6 3#23 VSS 2.15467e-17
CJ7 3#22 VSS 9.18247e-18
CJ8 3#21 VSS 4.58573e-18
CJ9 3#11 VSS 1.30803e-17
CJ10 3#10 VSS 9.78731e-18
CJ11 3#12 VSS 4.15169e-18
CJ12 3#17 VSS 3.84106e-18
CJ13 3 VSS 1.3388e-17
CJ14 3#24 34 7.00255e-18
CJ15 MX84/M0#d 38 1.87389e-17
CJ16 MX74/M0#g 34 6.21439e-18
CJ17 3#23 38 2.61086e-17
CJ18 MX74/M0#g 12#36 9.27001e-18
CJ19 3#10 12#38 7.63775e-18
CJ20 3#23 12#38 6.38606e-18
CJ21 3#21 MX57/M0#d 6.25804e-18
CJ22 MX84/M0#d MX70/M0#g 6.2356e-18
CJ23 3#12 MX57/M0#d 6.1928e-18
CJ24 3 12#26 4.60298e-18
CJ25 3#24 12#26 3.84602e-18
CJ26 3#22 12#30 3.11343e-18
CJ27 3#11 12#33 2.81337e-18
CJ28 MX84/M0#d 12#32 2.13458e-17
CJ29 3#23 12#32 4.32558e-17
CJ30 3#24 12#38 1.12917e-16
CJ31 3#24 12#33 3.55444e-17
CJ32 3#11 12#36 2.58721e-17
CJ33 MX58/M0#d MX57/M0#d 1.3824e-17
CJ34 3#24 MX66/M0#d 2.71816e-17
CJ35 3#10 12#33 2.48127e-17
CJ36 3#23 12#33 1.2209e-17
CJ37 3#22 MX80/M0#d 6.91887e-18
CJ38 3#23 MX71/M0#d 3.91251e-18
CJ39 MX84/M0#d 4#20 3.83446e-18
CJ40 3#23 4#20 5.66187e-17
CJ41 3#22 4#19 3.88281e-17
CJ42 3#17 4#12 1.17256e-17
CJ43 3#23 4#19 7.12043e-17
CJ44 3#23 4#17 8.76987e-18
CJ45 3#22 4#18 9.49577e-17
CJ46 MX81/M0#d MX80/M0#d 1.57223e-17
CJ47 MX84/M0#d MX71/M0#d 1.89122e-17
CJ48 MX84/M0#d VSS#4 7.24683e-18
CJ49 MX74/M0#g MX74/M0#s 7.17717e-18
CJ50 MX84/M0#d VSS#27 5.3592e-18
CJ51 MX74/M0#g VSS#11 4.87612e-18
CJ52 MX74/M0#g VSS#27 4.8201e-18
CJ53 3#24 VSS#11 3.29938e-18
CJ54 3#23 VSS#4 1.14467e-17
CJ55 3#24 VSS#27 3.91192e-17
CJ56 3#24 MX74/M0#s 2.22187e-17
CJ57 3#23 MX76/M0#s 2.78624e-17
CJ58 3#23 VSS#27 6.74695e-17
RgJ159 3 3#8 506.635559 $L=1.65 $W=0.15
RgJ160 3#8 3#9 34.134449 $L=0.1645 $W=0.27
RgJ161 3#9 MX74/M0#g 213.731293 $L=0.665 $W=0.15
RfJ162 3#10 3#11 13.176471 $L=0.175 $W=0.17
RfJ163 3#12 3#14 14.305882 $L=0.19 $W=0.17
RfJ164 3#16 3#17 14.305882 $L=0.19 $W=0.17
RfJ165 3#18 3#20 3.764706 $L=0.05 $W=0.17
ReJ166 3#21 3#22 0.618754 $L=1.24 $W=0.23
ReJ167 3#22 3#23 1.217391 $L=2.24 $W=0.23
ReJ168 3#23 3#24 1.368754 $L=2.62 $W=0.23
RhJ169 MX84/M0#d 3#20 15.000000 $A=0.0289
Rh_2_J170 MX58/M0#d 3#14 15.000000 $A=0.0289
Rh_2_J171 MX81/M0#d 3#16 15.000000 $A=0.0289
RjJ172 3#12 3#21 152.000000 $A=0.0289
RjJ173 3#17 3#22 152.000000 $A=0.0289
RjJ174 3#18 3#23 152.000000 $A=0.0289
RjJ175 3#10 3#24 152.000000 $A=0.0289
RiJ176 3#8 3#11 15.000000 $A=0.0289
RmwJ177 MX70/M0#s MX84/M0#d 0.001000 $W=1000000
RmwJ178 MX80/M0#s MX81/M0#d 0.001000 $W=1000000
RmwJ179 MX78/M0#g 3 0.001000 $W=1000000
*
*|NET 7 1.0105e-15
*|I (MX68/M0#g MX68/M0 g X 0 8.4850 0.8000)
*|I (MX67/M0#d MX67/M0 d X 0 7.1805 0.8000)
*|I (MX59/M0#d MX59/M0 d X 0 7.1805 3.2800)
*|I (MX55/M0#g MX55/M0 g X 0 8.4850 3.2400)
*|S (7 8.4850 3.2400)
*|S (7#8 8.5400 1.6300)
*|S (7#9 8.5400 1.4950)
*|S (7#11 7.3200 3.2800)
*|S (7#12 7.3200 3.0900)
*|S (7#13 7.3200 0.8500)
*|S (7#15 7.3200 0.8000)
*|S (7#16 8.5400 1.6300)
*|S (7#17 7.3200 1.6300)
*|S (7#18 7.3200 3.0900)
*|S (7#19 7.3200 1.6300)
*|S (7#20 7.3200 0.8500)
CN1 MX59/M0#d VSS 1.38977e-18
CN2 MX67/M0#d VSS 4.41619e-18
CN3 MX68/M0#g VSS 1.88168e-17
CN4 7#20 VSS 4.76054e-18
CN5 7#19 VSS 5.94305e-18
CN6 7#18 VSS 6.87452e-18
CN7 7#16 VSS 2.74893e-17
CN8 7#17 VSS 1.77395e-17
CN9 7#12 VSS 1.76525e-18
CN10 MX68/M0#g VSS#26 4.8201e-18
CN11 MX67/M0#d VSS#26 5.476e-18
CN12 7#17 VSS#26 6.21553e-18
CN13 7#20 VSS#26 1.74471e-17
CN14 7#20 MX83/M0#d 6.50864e-18
CN15 7#20 VSS#6 5.37701e-18
CN16 MX68/M0#g MX68/M0#s 8.41205e-18
CN17 MX67/M0#d VSS#6 6.01954e-18
CN18 7#16 MX68/M0#s 8.42702e-18
CN19 MX67/M0#d MX83/M0#d 1.97719e-17
CN20 7#16 VSS#26 6.59502e-18
RgN233 7 7#8 493.684845 $L=1.61 $W=0.15
RgN234 7#8 7#9 25.613562 $L=0.1345 $W=0.33
RgN235 7#9 MX68/M0#g 223.363174 $L=0.695 $W=0.15
RfN236 7#11 7#12 14.305882 $L=0.19 $W=0.17
RfN237 7#13 7#15 3.764706 $L=0.05 $W=0.17
RfN238 7#16 7#17 91.858826 $L=1.22 $W=0.17
ReN239 7#18 7#19 0.793478 $L=1.46 $W=0.23
ReN240 7#19 7#20 0.423913 $L=0.78 $W=0.23
RhN241 MX67/M0#d 7#15 15.000000 $A=0.0289
Rh_2_N242 MX59/M0#d 7#11 15.000000 $A=0.0289
RjN243 7#12 7#18 152.000000 $A=0.0289
RjN244 7#17 7#19 152.000000 $A=0.0289
RjN245 7#13 7#20 152.000000 $A=0.0289
RiN246 7#8 7#16 15.000000 $A=0.0289
RmwN247 MX55/M0#g 7 0.001000 $W=1000000
*
*|NET 5 4.61271e-16
*|I (MX77/M0#d MX77/M0 d X 0 5.2195 3.2800)
*|I (MX60/M0#d MX60/M0 d X 0 5.8005 3.2800)
*|I (MM1#d MM1 d X 0 4.9405 3.2800)
*|S (5 5.0800 3.2800)
*|S (5#2 5.0800 3.2800)
*|S (5#3 5.0800 3.0900)
*|S (5#5 5.9400 3.2800)
*|S (5#6 5.9400 3.0900)
*|S (5#7 5.9400 3.0900)
*|S (5#8 5.8250 3.0900)
*|S (5#9 5.1945 3.0900)
*|S (5#10 5.0800 3.0900)
CL1 MX60/M0#d VSS 3.60829e-18
CL2 5#9 VSS 7.3184e-18
CL3 5#8 VSS 6.54658e-18
CL4 5#3 VSS 1.64601e-18
CL5 5#6 VSS 2.29431e-18
CL6 5 VSS 4.97556e-18
CL7 5#9 MM1#g 1.14957e-18
CL8 5#3 12#29 2.15236e-17
CL9 5#3 12#39 4.53676e-18
CL10 5#9 12#29 5.55343e-18
CL11 5 MM1#g 4.57251e-18
CL12 5#3 MM1#g 3.15253e-18
CL13 5#9 12#39 3.04742e-17
CL14 5#9 6 1.76982e-18
CL15 5#8 6#37 1.73753e-18
CL16 5#9 6#37 1.48408e-18
CL17 MX60/M0#d 6#38 1.06006e-18
CL18 5#8 MX82/M0#s 1.06006e-18
CL19 5 6 4.57251e-18
CL20 MX60/M0#d MX82/M0#s 1.28464e-17
CL21 5#8 6#36 3.15927e-18
CL22 5#6 6#30 8.64203e-18
CL23 5#3 6 3.15253e-18
CL24 5#6 6#36 2.33417e-18
CL25 5#8 6#30 2.95915e-18
CL26 5#8 6#38 2.69946e-17
CL27 5#6 6#38 3.75843e-18
RfL197 5#2 5#3 14.305882 $L=0.19 $W=0.17
RfL198 5#5 5#6 14.305882 $L=0.19 $W=0.17
ReL199 5#7 5#8 0.053985 $L=0.1145 $W=0.29
ReL200 5#8 5#9 0.342607 $L=0.63 $W=0.23
ReL201 5#9 5#10 0.053985 $L=0.1145 $W=0.29
Rh_2_L202 5 5#2 15.000000 $A=0.0289
Rh_2_L203 MX60/M0#d 5#5 15.000000 $A=0.0289
RjL204 5#6 5#7 152.000000 $A=0.0289
RjL205 5#3 5#10 152.000000 $A=0.0289
RmwL206 MX77/M0#d 5 0.001000 $W=1000000
RmwL207 MM1#d 5 0.001000 $W=1000000
*
*|NET D 4.66686e-16
*|P (D X 0 0.9350 1.2500)
*|I (MX62/M0#g MX62/M0 g X 0 0.9050 0.8000)
*|I (MM0#g MM0 g X 0 0.9050 3.2800)
*|S (D#8 0.9050 1.2900)
*|S (D#9 0.9050 1.1250)
*|S (D#10 0.9200 1.2900)
*|S (D#11 0.9050 1.2900)
*|S (D#12 0.9200 1.2900)
CB1 MM0#g VSS 1.12543e-17
CB2 MX62/M0#g VSS 1.54557e-17
CB3 D#11 VSS 2.22895e-17
CB4 D VSS 1.74372e-17
CB5 D 30 2.20337e-17
CB6 D#11 30 1.35431e-17
CB7 MX62/M0#g 30 6.23839e-18
CB8 MX62/M0#g MX75/M0#d 1.31748e-18
CB9 D#11 2#20 5.80113e-18
CB10 D 2#20 7.41819e-17
CB11 D MX75/M0#d 3.34992e-18
CB12 MX62/M0#g MX65/M0#d 1.54951e-18
CB13 MX62/M0#g 1#43 1.45859e-18
CB14 MM0#g MX56/M0#d 1.13944e-18
CB15 D 1#44 4.47457e-18
CB16 D#11 1#43 7.42568e-18
CB17 D#11 1#47 1.26951e-17
CB18 D 1#47 4.20015e-17
CB19 D 1#46 2.8194e-17
CB20 D#11 1#44 1.01264e-17
CB21 D 1#43 1.0645e-17
CB22 D MX65/M0#d 4.74951e-18
CB23 D VSS#12 3.82844e-18
CB24 MX62/M0#g MX65/M0#s 7.17996e-18
CB25 D VSS#27 2.50454e-17
CB26 MX62/M0#g VSS#12 3.64084e-18
CB27 D#11 VSS#27 3.12861e-18
CB28 D MX65/M0#s 1.60038e-17
CB29 MX62/M0#g VSS#27 2.82733e-18
CB30 D#11 MX65/M0#s 2.82162e-17
CB31 MM0#g VDD#21 3.77064e-18
CB32 MM0#g MX56/M0#s 8.69011e-18
CB33 MM0#g VDD#26 3.05429e-18
CB34 MM0#g VDD 1.43761e-17
RgB10 MM0#g D#8 620.612427 $L=1.99 $W=0.15
RgB11 D#8 D#9 34.134449 $L=0.1645 $W=0.27
RgB12 D#9 MX62/M0#g 104.477959 $L=0.325 $W=0.15
RfB13 D#10 D#11 1.129412 $L=0.015 $W=0.17
ReB14 D D#12 0.019231 $L=0.04 $W=0.26
RjB15 D#10 D#12 152.000000 $A=0.0289
RiB16 D#8 D#11 15.000000 $A=0.0289
*
*|NET 6 1.34317e-15
*|I (MX83/M0#s MX83/M0 s X 0 6.5995 0.8000)
*|I (MX73/M0#g MX73/M0 g X 0 5.2950 0.8000)
*|I (MX67/M0#g MX67/M0 g X 0 7.1050 0.8000)
*|I (MX63/M0#g MX63/M0 g X 0 8.0550 0.8000)
*|I (MX82/M0#s MX82/M0 s X 0 6.5995 3.2800)
*|I (MX77/M0#g MX77/M0 g X 0 5.2950 3.2800)
*|I (MX61/M0#g MX61/M0 g X 0 8.0550 3.2400)
*|I (MX59/M0#g MX59/M0 g X 0 7.1050 3.2800)
*|S (6 5.2950 3.2800)
*|S (6#22 5.2950 1.9700)
*|S (6#23 5.2950 1.8050)
*|S (6#24 7.1450 1.9700)
*|S (6#25 7.1450 1.8050)
*|S (6#26 8.0000 1.9700)
*|S (6#27 8.0000 1.8350)
*|S (6#29 6.4600 3.2800)
*|S (6#30 6.4600 3.0900)
*|S (6#31 6.4600 0.8500)
*|S (6#33 6.4600 0.8000)
*|S (6#34 8.0000 1.9700)
*|S (6#35 7.1450 1.9700)
*|S (6#36 6.4600 1.9700)
*|S (6#37 5.2950 1.9700)
*|S (6#38 6.4600 3.0900)
*|S (6#39 6.4600 1.9700)
*|S (6#40 6.4600 0.8500)
CM1 MX59/M0#g VSS 4.54233e-18
CM2 MX61/M0#g VSS 1.30373e-18
CM3 MX82/M0#s VSS 1.73476e-18
CM4 MX63/M0#g VSS 1.5082e-17
CM5 MX67/M0#g VSS 1.27312e-17
CM6 MX73/M0#g VSS 3.11223e-17
CM7 MX83/M0#s VSS 4.15216e-18
CM8 6#40 VSS 1.94088e-17
CM9 6#39 VSS 2.72073e-18
CM10 6#38 VSS 7.15499e-18
CM11 6#37 VSS 2.61839e-17
CM12 6#35 VSS 2.21418e-17
CM13 6#34 VSS 2.32423e-17
CM14 6#36 VSS 2.97876e-17
CM15 6#30 VSS 2.19287e-18
CM16 6 VSS 7.5374e-18
CM17 6#40 12#40 6.49193e-18
CM18 6#38 12#39 6.46506e-18
CM19 MX73/M0#g 12#31 5.253e-18
CM20 6#40 12#31 4.26134e-18
CM21 6#38 12#29 3.57026e-18
CM22 6#39 12#39 9.0476e-18
CM23 6#39 12#40 9.07337e-18
CM24 6#37 12#40 9.04432e-18
CM25 6#37 12#39 8.99473e-18
CM26 MX67/M0#g 7#17 4.15502e-18
CM27 6#39 7#17 3.60333e-18
CM28 MX59/M0#g 7#12 3.59e-18
CM29 6#35 7#12 3.00311e-18
CM30 MX63/M0#g MX67/M0#d 1.74357e-18
CM31 MX67/M0#g 7#20 1.50907e-18
CM32 6#40 MX67/M0#d 1.44388e-18
CM33 MX61/M0#g 7#12 1.41871e-18
CM34 MX83/M0#s 7#20 1.36786e-18
CM35 MX61/M0#g MX59/M0#d 1.24804e-18
CM36 MX59/M0#g 7#18 1.24079e-18
CM37 6#40 7#19 7.62719e-18
CM38 6#34 7#16 2.60619e-17
CM39 MX63/M0#g 7#16 5.38824e-18
CM40 6#38 7#18 2.87867e-17
CM41 MX67/M0#g MX67/M0#d 7.13214e-18
CM42 6#34 7#17 2.76465e-17
CM43 6#39 7#19 3.52229e-17
CM44 6#35 7#17 3.88028e-17
CM45 6#35 7#19 3.15024e-17
CM46 6#39 7#18 7.81134e-18
CM47 MX59/M0#g MX59/M0#d 5.29259e-18
CM48 6#40 7#20 2.12908e-17
CM49 6#35 MX83/M0#d 6.31835e-18
CM50 MX83/M0#s VSS#27 5.45834e-18
CM51 MX73/M0#g VSS#7 5.45659e-18
CM52 MX73/M0#g VSS#27 4.8201e-18
CM53 MX63/M0#g VSS#26 4.8201e-18
CM54 MX67/M0#g VSS#6 4.30268e-18
CM55 MX63/M0#g VSS#4 4.29097e-18
CM56 MX83/M0#s VSS#6 3.42471e-18
CM57 6#40 VSS#6 3.19787e-18
CM58 MX67/M0#g VSS#26 2.50645e-18
CM59 6#40 VSS#7 2.16757e-18
CM60 6#35 VSS#27 1.859e-18
CM61 MX67/M0#g VSS#27 1.56653e-18
CM62 MX83/M0#s MX83/M0#d 2.02979e-17
CM63 MX83/M0#s MX64/M0#s 1.51502e-17
CM64 6#40 MX64/M0#s 7.69692e-18
CM65 6#40 VSS#27 2.07771e-17
CM66 6#40 MX83/M0#d 7.31964e-18
CM67 MX67/M0#g MX83/M0#d 7.57466e-18
CM68 MX63/M0#g MX68/M0#s 7.57466e-18
RgM208 6 6#22 402.105774 $L=1.31 $W=0.15
RgM209 6#22 6#23 34.134449 $L=0.1645 $W=0.27
RgM210 6#23 MX73/M0#g 322.984650 $L=1.005 $W=0.15
RgM211 MX59/M0#g 6#24 397.382233 $L=1.31 $W=0.15
RgM212 6#24 6#25 34.134449 $L=0.1645 $W=0.27
RgM213 6#25 MX67/M0#g 322.984650 $L=1.005 $W=0.15
RgM214 MX61/M0#g 6#26 390.363403 $L=1.27 $W=0.15
RgM215 6#26 6#27 25.613562 $L=0.1345 $W=0.33
RgM216 6#27 MX63/M0#g 332.616516 $L=1.035 $W=0.15
RfM217 6#29 6#30 14.305882 $L=0.19 $W=0.17
RfM218 6#31 6#33 3.764706 $L=0.05 $W=0.17
RfM219 6#34 6#35 64.376472 $L=0.855 $W=0.17
RfM220 6#35 6#36 51.576469 $L=0.685 $W=0.17
RfM221 6#36 6#37 87.717644 $L=1.165 $W=0.17
ReM222 6#38 6#39 0.608696 $L=1.12 $W=0.23
ReM223 6#39 6#40 0.608696 $L=1.12 $W=0.23
RhM224 MX83/M0#s 6#33 15.000000 $A=0.0289
Rh_2_M225 MX82/M0#s 6#29 15.000000 $A=0.0289
RjM226 6#30 6#38 152.000000 $A=0.0289
RjM227 6#36 6#39 152.000000 $A=0.0289
RjM228 6#31 6#40 152.000000 $A=0.0289
RiM229 6#26 6#34 15.000000 $A=0.0289
RiM230 6#24 6#35 15.000000 $A=0.0289
RiM231 6#22 6#37 15.000000 $A=0.0289
RmwM232 MX77/M0#g 6 0.001000 $W=1000000
*
*|NET VSS 2.88596e-15
*|P (VSS X 0 5.0850 0.0050)
*|I (MX83/M0#d MX83/M0 d X 0 6.7505 0.8000)
*|I (MX76/M0#s MX76/M0 s X 0 3.4995 0.8000)
*|I (MX74/M0#s MX74/M0 s X 0 2.2705 0.8000)
*|I (MX68/M0#s MX68/M0 s X 0 8.4095 0.8000)
*|I (MX67/M0#s MX67/M0 s X 0 7.0295 0.8000)
*|I (MX66/M0#s MX66/M0 s X 0 2.5495 0.8000)
*|I (MX65/M0#s MX65/M0 s X 0 0.5505 0.8000)
*|I (MX64/M0#s MX64/M0 s X 0 5.8005 0.8000)
*|I (MX63/M0#s MX63/M0 s X 0 8.1305 0.8000)
*|I (MX62/M0#s MX62/M0 s X 0 0.8295 0.8000)
*|S (VSS#1 9.1995 0.0000)
*|S (VSS#2 8.2700 0.0000)
*|S (VSS#3 8.0500 0.0000)
*|S (VSS#4 8.0500 0.0000)
*|S (VSS#6 6.8900 0.0000)
*|S (VSS#7 5.9400 0.0000)
*|S (VSS#8 3.6800 0.0000)
*|S (VSS#10 3.3600 0.0000)
*|S (VSS#11 2.4100 0.0000)
*|S (VSS#12 0.6900 0.0000)
*|S (VSS#13 0.0000 0.0000)
*|S (VSS#15 8.2700 0.8000)
*|S (VSS#17 6.8900 0.8000)
*|S (VSS#19 5.9400 0.8000)
*|S (VSS#21 3.3600 0.8000)
*|S (VSS#23 2.4100 0.8000)
*|S (VSS#25 0.6900 0.8000)
*|S (VSS#26 8.0500 0.0000)
*|S (VSS#27 3.6800 0.0000)
RfG79 VSS#1 VSS#2 47.315212 $L=0.9295 $W=0.25
RfG80 VSS#2 VSS#3 10.988811 $L=0.22 $W=0.25
RfG81 VSS#3 VSS#6 59.116810 $L=1.16 $W=0.25
RfG82 VSS#6 VSS#7 48.089619 $L=0.95 $W=0.25
RfG83 VSS#7 VSS#8 115.436806 $L=2.26 $W=0.25
RfG84 VSS#8 VSS#10 16.108810 $L=0.32 $W=0.25
RfG85 VSS#10 VSS#11 48.089619 $L=0.95 $W=0.25
RfG86 VSS#11 VSS#12 87.513618 $L=1.72 $W=0.25
RfG87 VSS#12 VSS#13 35.052811 $L=0.69 $W=0.25
RfG88 VSS#2 VSS#15 53.627445 $L=0.8 $W=0.17
RfG89 VSS#6 VSS#17 53.627445 $L=0.8 $W=0.17
RfG90 VSS#7 VSS#19 53.627445 $L=0.8 $W=0.17
RfG91 VSS#10 VSS#21 53.627445 $L=0.8 $W=0.17
RfG92 VSS#11 VSS#23 53.627445 $L=0.8 $W=0.17
RfG93 VSS#12 VSS#25 53.627445 $L=0.8 $W=0.17
ReG94 VSS#26 VSS 0.926562 $L=2.965 $W=0.4
ReG95 VSS VSS#27 0.439063 $L=1.405 $W=0.4
RhG96 MX68/M0#s VSS#15 15.000000 $A=0.0289
RhG97 MX83/M0#d VSS#17 15.000000 $A=0.0289
RhG98 MX64/M0#s VSS#19 15.000000 $A=0.0289
RhG99 MX76/M0#s VSS#21 15.000000 $A=0.0289
RhG100 MX74/M0#s VSS#23 15.000000 $A=0.0289
RhG101 MX65/M0#s VSS#25 15.000000 $A=0.0289
Rh_3_G102 VSS#4 VSS#3 3.750000 $A=0.1156
Rh_3_G103 VSS#4 VSS#8 1.000000 $A=0.4335
RjG104 VSS#3 VSS#26 38.000000 $A=0.1156
RjG105 VSS#8 VSS#27 10.133333 $A=0.4335
RmwG106 MX67/M0#s MX83/M0#d 0.001000 $W=1000000
RmwG107 MX66/M0#s MX74/M0#s 0.001000 $W=1000000
RmwG108 MX63/M0#s MX68/M0#s 0.001000 $W=1000000
RmwG109 MX62/M0#s MX65/M0#s 0.001000 $W=1000000
*
*|NET VDD 2.2461e-15
*|P (VDD X 0 4.8250 4.1450)
*|I (MX82/M0#d MX82/M0 d X 0 6.7505 3.2800)
*|I (MX81/M0#s MX81/M0 s X 0 3.9295 3.2800)
*|I (MX78/M0#s MX78/M0 s X 0 2.2705 3.2800)
*|I (MX77/M0#s MX77/M0 s X 0 5.3705 3.2800)
*|I (MX61/M0#s MX61/M0 s X 0 8.1305 3.2400)
*|I (MX60/M0#s MX60/M0 s X 0 5.6495 3.2800)
*|I (MX59/M0#s MX59/M0 s X 0 7.0295 3.2800)
*|I (MX58/M0#s MX58/M0 s X 0 3.6505 3.2800)
*|I (MX57/M0#s MX57/M0 s X 0 2.5495 3.2800)
*|I (MX56/M0#s MX56/M0 s X 0 0.5505 3.2800)
*|I (MX55/M0#s MX55/M0 s X 0 8.4095 3.2400)
*|I (MM0#s MM0 s X 0 0.8295 3.2800)
*|S (VDD#1 9.1995 4.1400)
*|S (VDD#2 8.2700 4.1400)
*|S (VDD#3 8.0500 4.1400)
*|S (VDD#4 8.0500 4.1400)
*|S (VDD#6 6.8900 4.1400)
*|S (VDD#7 5.5100 4.1400)
*|S (VDD#8 3.6800 4.1400)
*|S (VDD#11 8.2700 3.2400)
*|S (VDD#13 6.8900 3.2800)
*|S (VDD#15 5.5100 3.2800)
*|S (VDD#17 3.7900 3.2800)
*|S (VDD#18 2.4100 4.1400)
*|S (VDD#20 2.4100 3.2800)
*|S (VDD#21 0.6900 4.1400)
*|S (VDD#23 0.6900 3.2800)
*|S (VDD#24 0.0000 4.1400)
*|S (VDD#25 8.0500 4.1400)
*|S (VDD#26 3.6800 4.1400)
CF1 MX56/M0#s VSS 2.68596e-18
CF2 MX77/M0#s VSS 1.75881e-18
CF3 MX78/M0#s VSS 7.40108e-18
CF4 MX81/M0#s VSS 3.2291e-18
CF5 MX82/M0#d VSS 3.36292e-18
CF6 VDD#26 VSS 6.89827e-18
CF7 VDD#25 VSS 4.50125e-18
CF8 VDD#21 VSS 4.00389e-18
CF9 VDD#18 VSS 4.28141e-18
CF10 VDD#7 VSS 4.94947e-18
CF11 VDD#6 VSS 6.50931e-18
CF12 VDD#1 VSS 1.80466e-18
CF13 VDD#24 VSS 1.88593e-18
CF14 VDD#4 VSS 4.76388e-18
CF15 VDD VSS 6.66656e-18
CF16 VDD 36 2.45964e-18
CF17 VDD 32 6.01326e-18
CF18 VDD#26 36 6.06053e-18
CF19 MX78/M0#s 36 3.04522e-17
CF20 MX56/M0#s 32 2.91209e-17
CF21 VDD#26 32 7.72663e-18
CF22 VDD#18 36 6.06011e-18
CF23 VDD#21 32 6.06011e-18
CF24 VDD 12#37 8.61706e-18
CF25 VDD 12#39 7.84522e-18
CF26 VDD 12#30 7.07627e-18
CF27 VDD#26 MX57/M0#d 6.35039e-18
CF28 VDD#26 MM1#g 5.21861e-18
CF29 VDD#26 12 5.21861e-18
CF30 VDD#21 12 5.04997e-18
CF31 VDD#7 MM1#g 5.04997e-18
CF32 VDD#18 MX57/M0#d 4.88855e-18
CF33 VDD#26 12#27 4.66223e-18
CF34 VDD#26 12#26 2.59952e-18
CF35 VDD#26 12#30 2.25135e-18
CF36 VDD#18 12#26 1.76514e-18
CF37 MX77/M0#s MM1#g 1.71348e-18
CF38 MX78/M0#s 12#26 2.64427e-17
CF39 VDD 12#27 2.97585e-17
CF40 VDD 12#26 2.55038e-17
CF41 VDD 12#29 1.01905e-17
CF42 MX78/M0#s MX57/M0#d 2.75705e-17
CF43 VDD MM1#g 1.60341e-17
CF44 VDD 12 1.60883e-17
CF45 VDD#4 7 4.34129e-18
CF46 VDD 7#19 3.58248e-18
CF47 VDD#25 7 5.48428e-18
CF48 MX82/M0#d MX59/M0#d 1.75922e-17
CF49 MX82/M0#d 7#18 6.5405e-18
CF50 MX82/M0#d 7#12 1.15898e-17
CF51 MX61/M0#s 7#16 6.26566e-18
CF52 VDD 7#18 1.29404e-17
CF53 VDD 7 1.21348e-17
CF54 VDD#25 MX59/M0#d 6.02107e-18
CF55 VDD#6 MX59/M0#d 6.06011e-18
CF56 MX61/M0#s 7 1.13636e-17
CF57 VDD#25 7#18 1.37392e-17
CF58 VDD 7#12 5.17808e-18
CF59 MX82/M0#d 6#35 6.31835e-18
CF60 VDD#6 MX82/M0#s 6.06011e-18
CF61 VDD#26 MX82/M0#s 6.02107e-18
CF62 VDD#4 MX61/M0#g 5.81423e-18
CF63 VDD#25 MX61/M0#g 5.48428e-18
CF64 VDD#26 6#36 4.7491e-18
CF65 VDD 6#30 4.60769e-18
CF66 VDD#6 MX59/M0#g 4.32601e-18
CF67 VDD#7 6 4.07063e-18
CF68 VDD#25 6#34 3.36752e-18
CF69 MX82/M0#d MX82/M0#s 1.96578e-17
CF70 MX77/M0#s 6 8.66333e-18
CF71 VDD MX59/M0#g 1.10579e-17
CF72 MX61/M0#s MX61/M0#g 1.02324e-17
CF73 VDD#26 6#38 1.37392e-17
CF74 MX82/M0#d 6#30 1.17361e-17
CF75 VDD MX61/M0#g 1.3354e-17
CF76 VDD 6 1.24905e-17
CF77 VDD 6#39 1.1092e-17
CF78 MX82/M0#d MX59/M0#g 9.15604e-18
CF79 VDD 6#38 1.40655e-17
CF80 MX82/M0#d 6#38 6.82095e-18
CF81 MX77/M0#s MX60/M0#d 1.96578e-17
CF82 VDD#7 5 6.06011e-18
CF83 VDD#7 5#9 3.11504e-18
CF84 VDD#26 MX60/M0#d 6.02107e-18
CF85 VDD 5#8 4.57408e-18
CF86 VDD#7 5#8 4.10289e-18
CF87 VDD 5#3 2.76587e-18
CF88 MX77/M0#s 5#8 1.51631e-17
CF89 VDD 5#6 6.05056e-18
CF90 MX77/M0#s 5#9 1.52317e-17
CF91 MX77/M0#s 5 1.96578e-17
CF92 VDD#7 MX60/M0#d 6.06011e-18
CF93 VDD#26 5 6.02107e-18
CF94 VDD#26 5#9 1.97672e-17
CF95 MX77/M0#s 5#6 1.02296e-17
CF96 VDD#26 5#8 2.07712e-17
CF97 MX77/M0#s 5#3 1.01776e-17
CF98 VDD#26 MX80/M0#d 6.00165e-18
CF99 VDD#6 4 5.77573e-18
CF100 VDD#26 4 5.21861e-18
CF101 VDD#4 MX80/M0#d 3.64784e-18
CF102 VDD#7 MX80/M0#d 3.6243e-18
CF103 VDD 4#12 3.20318e-18
CF104 MX82/M0#d 4 9.15604e-18
CF105 VDD#26 4#18 1.37392e-17
CF106 VDD 4 1.34714e-17
CF107 VDD 4#18 1.02425e-17
CF108 VDD#4 3#12 8.74874e-18
CF109 MX78/M0#s 3 8.677e-18
CF110 VDD#4 3#22 8.42993e-18
CF111 VDD#4 3#21 7.49784e-18
CF112 VDD#4 MX81/M0#d 6.14821e-18
CF113 VDD 3#21 5.90989e-18
CF114 VDD 3#12 4.90668e-18
CF115 VDD#26 3#12 4.80664e-18
CF116 VDD#26 MX81/M0#d 4.61086e-18
CF117 MX78/M0#s 3#21 4.04401e-18
CF118 MX77/M0#s 3#22 3.89355e-18
CF119 VDD#18 3 3.77064e-18
CF120 VDD 3#17 3.35599e-18
CF121 VDD#26 3 3.23298e-18
CF122 MX81/M0#s 3#12 1.23129e-17
CF123 MX81/M0#s 3#21 1.4198e-17
CF124 MX81/M0#s 3#22 1.4155e-17
CF125 VDD#26 3#22 3.7541e-17
CF126 MX81/M0#s MX58/M0#d 1.83126e-17
CF127 VDD#26 3#21 4.36313e-17
CF128 VDD 3 1.43761e-17
CF129 VDD 3#22 1.11363e-17
CF130 MX81/M0#s MX81/M0#d 1.6289e-17
CF131 MX81/M0#s 3#17 1.17256e-17
CF132 VDD#18 2#19 6.20659e-18
CF133 VDD#26 MX79/M0#d 6.00165e-18
CF134 VDD 2#16 5.99943e-18
CF135 VDD 2#17 5.61498e-18
CF136 VDD#4 2 5.04997e-18
CF137 VDD#21 MX79/M0#d 3.64784e-18
CF138 VDD#18 MX79/M0#d 3.6243e-18
CF139 VDD#4 2#18 2.97423e-18
CF140 VDD#26 2 2.62729e-18
CF141 VDD#26 2#19 4.50748e-17
CF142 MX81/M0#s 2#17 2.22736e-17
CF143 MX81/M0#s 2#18 2.08517e-17
CF144 VDD 2#19 1.46597e-17
CF145 VDD 2#18 1.68036e-17
CF146 VDD#26 2#18 1.31085e-17
CF147 VDD 2 9.61815e-18
CF148 MX78/M0#s 2#19 2.70191e-17
CF149 MX81/M0#s 2 8.78796e-18
CF150 VDD 1#37 6.30308e-18
CF151 VDD#26 MX56/M0#d 6.00165e-18
CF152 MX56/M0#s 1#45 5.99802e-18
CF153 VDD#4 MX80/M0#g 5.77573e-18
CF154 VDD#26 MX80/M0#g 5.21861e-18
CF155 VDD#18 1 5.04997e-18
CF156 VDD#24 MX56/M0#d 4.65982e-18
CF157 VDD#26 1#44 3.84737e-18
CF158 VDD#26 MX57/M0#g 3.23298e-18
CF159 VDD#18 MX57/M0#g 2.49132e-18
CF160 VDD#26 1 2.09066e-18
CF161 VDD MX56/M0#d 1.08956e-17
CF162 VDD#26 1#45 1.37392e-17
CF163 VDD MX57/M0#g 1.23207e-17
CF164 VDD 1#46 2.64572e-17
CF165 VDD 1#45 2.94513e-17
CF166 MX56/M0#s 1#37 1.17245e-17
CF167 MX56/M0#s MX56/M0#d 1.90379e-17
CF168 VDD 1 1.39554e-17
CF169 MX78/M0#s MX57/M0#g 9.11565e-18
CF170 VDD MX80/M0#g 1.29534e-17
RfF47 VDD#1 VDD#2 47.315212 $L=0.9295 $W=0.25
RfF48 VDD#2 VDD#3 10.988811 $L=0.22 $W=0.25
RfF49 VDD#3 VDD#6 59.116810 $L=1.16 $W=0.25
RfF50 VDD#6 VDD#7 70.105621 $L=1.38 $W=0.25
RfF51 VDD#7 VDD#8 93.420807 $L=1.83 $W=0.25
RfF52 VDD#2 VDD#11 61.156857 $L=0.9 $W=0.17
RfF53 VDD#6 VDD#13 58.145092 $L=0.86 $W=0.17
RfF54 VDD#7 VDD#15 58.145092 $L=0.86 $W=0.17
RfF55 VDD#8 VDD#17 61.741177 $L=0.86 $W=0.17
RfF56 VDD#8 VDD#18 64.748810 $L=1.27 $W=0.25
RfF57 VDD#18 VDD#20 58.145092 $L=0.86 $W=0.17
RfF58 VDD#18 VDD#21 87.513618 $L=1.72 $W=0.25
RfF59 VDD#21 VDD#23 58.145092 $L=0.86 $W=0.17
RfF60 VDD#21 VDD#24 35.052811 $L=0.69 $W=0.25
ReF61 VDD#25 VDD 1.007812 $L=3.225 $W=0.4
ReF62 VDD VDD#26 0.357812 $L=1.145 $W=0.4
Rh_1_F63 VDD#4 VDD#3 3.750000 $A=0.1156
Rh_1_F64 VDD#4 VDD#8 1.000000 $A=0.4335
Rh_2_F65 MX61/M0#s VDD#11 15.000000 $A=0.0289
Rh_2_F66 MX82/M0#d VDD#13 15.000000 $A=0.0289
Rh_2_F67 MX77/M0#s VDD#15 15.000000 $A=0.0289
Rh_2_F68 MX81/M0#s VDD#17 15.000000 $A=0.0289
Rh_2_F69 MX78/M0#s VDD#20 15.000000 $A=0.0289
Rh_2_F70 MX56/M0#s VDD#23 15.000000 $A=0.0289
RjF71 VDD#3 VDD#25 38.000000 $A=0.1156
RjF72 VDD#8 VDD#26 10.133333 $A=0.4335
RmwF73 MX60/M0#s MX77/M0#s 0.001000 $W=1000000
RmwF74 MX59/M0#s MX82/M0#d 0.001000 $W=1000000
RmwF75 MX58/M0#s MX81/M0#s 0.001000 $W=1000000
RmwF76 MX57/M0#s MX78/M0#s 0.001000 $W=1000000
RmwF77 MX55/M0#s MX61/M0#s 0.001000 $W=1000000
RmwF78 MM0#s MX56/M0#s 0.001000 $W=1000000
*
*|NET 40 1.09468e-16
*|I (MX73/M0#d MX73/M0 d X 0 5.2195 0.8000)
*|I (MX71/M0#s MX71/M0 s X 0 4.9405 0.8000)
*|S (40 5.0800 0.8000)
CQ1 40 VSS 1.79978e-17
CQ2 40 VSS#27 6.02184e-18
CQ3 40 VSS#7 7.24683e-18
CQ4 40 42 2.05659e-17
RmwQ288 MX73/M0#d 40 0.001000 $W=1000000
RmwQ289 MX71/M0#s 40 0.001000 $W=1000000
*
*|NET 42 8.84354e-17
*|I (MX73/M0#s MX73/M0 s X 0 5.3705 0.8000)
*|I (MX64/M0#d MX64/M0 d X 0 5.6495 0.8000)
*|S (42 5.5100 0.8000)
CQ5 42 VSS 2.10645e-17
CQ6 42 VSS#7 6.01954e-18
CQ7 42 VSS#27 7.7064e-18
CQ8 42 MX64/M0#s 2.17828e-17
RmwQ290 MX73/M0#s 42 0.001000 $W=1000000
RmwQ291 MX64/M0#d 42 0.001000 $W=1000000
*
*|NET 1 1.56306e-15
*|I (MX75/M0#g MX75/M0 g X 0 1.3350 0.8000)
*|I (MX71/M0#g MX71/M0 g X 0 4.8650 0.8000)
*|I (MX66/M0#g MX66/M0 g X 0 2.6250 0.8000)
*|I (MX65/M0#d MX65/M0 d X 0 0.3995 0.8000)
*|I (MX80/M0#g MX80/M0 g X 0 4.4350 3.2800)
*|I (MX79/M0#g MX79/M0 g X 0 1.7650 3.2800)
*|I (MX57/M0#g MX57/M0 g X 0 2.6250 3.2800)
*|I (MX56/M0#d MX56/M0 d X 0 0.3995 3.2800)
*|S (1 1.7650 3.2800)
*|S (1#22 1.7750 1.9700)
*|S (1#23 1.5500 1.9700)
*|S (1#24 1.3250 1.9700)
*|S (1#25 1.3250 1.8050)
*|S (1#26 2.6400 2.8295)
*|S (1#27 2.6400 2.6800)
*|S (1#28 2.7150 1.9700)
*|S (1#29 2.7150 1.8050)
*|S (1#30 2.6400 1.2595)
*|S (1#31 2.6400 1.1100)
*|S (1#32 4.8650 1.9700)
*|S (1#33 4.6500 1.9700)
*|S (1#34 4.4350 1.9700)
*|S (1#36 0.2600 3.2800)
*|S (1#37 0.2600 3.0900)
*|S (1#38 0.2600 0.8500)
*|S (1#40 0.2600 0.8000)
*|S (1#41 4.6500 1.9700)
*|S (1#42 2.7150 1.9700)
*|S (1#43 1.5500 1.9700)
*|S (1#44 0.2600 1.9700)
*|S (1#45 0.2600 3.0900)
*|S (1#46 0.2600 1.9700)
*|S (1#47 0.2600 0.8500)
CH1 MX57/M0#g VSS 6.63783e-18
CH2 MX80/M0#g VSS 5.25533e-18
CH3 MX65/M0#d VSS 1.05864e-17
CH4 MX66/M0#g VSS 1.79363e-17
CH5 MX71/M0#g VSS 3.19794e-17
CH6 MX75/M0#g VSS 1.97047e-17
CH7 1#47 VSS 3.61452e-17
CH8 1#46 VSS 2.70929e-17
CH9 1#45 VSS 4.94613e-18
CH10 1#43 VSS 3.67231e-17
CH11 1#42 VSS 3.26884e-17
CH12 1#41 VSS 2.90416e-17
CH13 1#44 VSS 2.78909e-17
CH14 1#37 VSS 7.8258e-19
CH15 1 VSS 1.25712e-17
CH16 1#43 30 4.52746e-18
CH17 1#47 30 1.37962e-18
CH18 MX75/M0#g 30 6.21439e-18
CH19 MX66/M0#g MX66/M0#d 7.16335e-18
CH20 1 12#27 6.16471e-18
CH21 MX66/M0#g 12#33 4.5719e-18
CH22 MX57/M0#g 12#26 3.04126e-18
CH23 1#43 12#26 3.02212e-18
CH24 1#43 MX69/M0#g 2.98254e-18
CH25 1#41 12#40 2.97388e-18
CH26 1#41 12#39 2.95469e-18
CH27 1#41 MX70/M0#g 2.21105e-18
CH28 1#43 12 1.40563e-18
CH29 1#46 12#27 1.22389e-18
CH30 1#42 12#26 1.9625e-17
CH31 MX71/M0#g 12#31 9.2391e-18
CH32 1#43 12#36 1.16998e-17
CH33 1#41 12#32 1.2466e-17
CH34 1#42 12#38 1.88646e-17
CH35 1#42 12#37 1.88852e-17
CH36 1#43 12#27 3.0415e-17
CH37 MX57/M0#g MX57/M0#d 8.90527e-18
CH38 1#42 12#33 2.01668e-17
CH39 MX71/M0#g MX71/M0#d 6.2356e-18
CH40 MX80/M0#g MX80/M0#d 4.57251e-18
CH41 MX80/M0#g 4#12 3.15253e-18
CH42 1#41 4#17 3.67017e-17
CH43 1#41 4#19 1.90199e-17
CH44 MX80/M0#g MX81/M0#d 4.59009e-18
CH45 MX80/M0#g 3#17 3.15253e-18
CH46 1#42 3#23 2.83237e-18
CH47 MX66/M0#g 3#24 2.39693e-18
CH48 MX80/M0#g 3#22 2.24606e-18
CH49 1#43 3 1.59938e-18
CH50 1#42 3#10 2.48612e-17
CH51 1#42 3#24 1.16193e-17
CH52 1#42 3#11 8.15844e-18
CH53 1#43 3#11 2.08716e-17
CH54 1#41 3#22 1.30511e-17
CH55 1#41 3#23 1.9868e-17
CH56 MX75/M0#g MX75/M0#d 6.2356e-18
CH57 1 MX79/M0#d 4.57251e-18
CH58 1#46 2#19 4.33461e-18
CH59 1#42 2#18 4.10484e-18
CH60 1#41 2#18 3.58449e-18
CH61 1 2#12 3.15253e-18
CH62 1#41 MX84/M0#g 2.9096e-18
CH63 1#42 2#19 2.12878e-18
CH64 1#43 MX75/M0#d 1.85718e-18
CH65 1#43 2#20 2.4309e-17
CH66 1#43 2#19 2.93455e-17
CH67 MX66/M0#g MX74/M0#s 7.49621e-18
CH68 1#47 MX65/M0#s 5.95386e-18
CH69 MX75/M0#g VSS#12 5.74683e-18
CH70 MX65/M0#d VSS#27 5.64727e-18
CH71 1#43 VSS#27 5.33462e-18
CH72 MX71/M0#g VSS#27 4.8201e-18
CH73 MX75/M0#g VSS#27 4.8201e-18
CH74 MX65/M0#d VSS#13 4.62862e-18
CH75 1#44 VSS#27 4.49278e-18
CH76 1#47 VSS#13 3.18629e-18
CH77 MX71/M0#g VSS#7 2.99069e-18
CH78 MX66/M0#g VSS#27 2.91292e-18
CH79 MX66/M0#g VSS#11 2.40555e-18
CH80 MX66/M0#g MX76/M0#s 2.20345e-18
CH81 1#47 VSS#27 2.07771e-17