*
*|DSPF 1.5
*
*|DATE "Fri Feb 28 13:35:08 2025"
*|VENDOR "Cadence Design Systems"
*|PROGRAM "Cadence Quantus Extraction"
*|VERSION "22.1.0-p089 Linux 64 bit - (Thu Jan 19 11:47:08 PST 2023)"
*|DESIGN "DFFSRX1_LP"
*|DIVIDER /
*|DELIMITER #
*|DeviceFingerDelim "@"
*|BUSBIT []
*|GLOBAL_TEMPERATURE 25
*|OPERATING_TEMPERATURE 25
** QRC_TECH_DIR /vols/wfo_devel/projects/reference_SKY130/tech/sky130_release_0.0.4/quantus/extraction/typical 
** HIERARCHICAL_SPLIT_PINS_DELIMITER '%'
** caps2d version: 10
*
.SUBCKT  DFFSRX1_LP CK D Q QN RN SN VDD VSS
*
*Net Section
*
*|GROUND_NET VSS
*
*|NET VSS 3.68166e-15
*|P (VSS X 0 4.8250 0.0050)
*|I (MX92/M0#d MX92/M0 d X 0 6.7805 0.8000)
*|I (MX89/M0#d MX89/M0 d X 0 2.2705 0.8000)
*|I (MX79/M0#s MX79/M0 s X 0 0.8295 0.8000)
*|I (MX70/M0#s MX70/M0 s X 0 7.0595 0.8000)
*|I (MX69/M0#d MX69/M0 d X 0 4.5105 0.8000)
*|I (MX68/M0#s MX68/M0 s X 0 2.5495 0.8000)
*|I (MX67/M0#s MX67/M0 s X 0 10.8995 0.8000)
*|I (MX66/M0#s MX66/M0 s X 0 9.5195 0.8000)
*|I (MX65/M0#s MX65/M0 s X 0 0.5505 0.8000)
*|I (MX64/M0#s MX64/M0 s X 0 10.6205 0.8000)
*|I (MX63/M0#s MX63/M0 s X 0 9.2405 0.8000)
*|S (VSS#1 11.4995 0.0000)
*|S (VSS#2 10.7600 0.0000)
*|S (VSS#3 9.3800 0.0000)
*|S (VSS#4 9.2000 0.0000)
*|S (VSS#5 9.2000 0.0000)
*|S (VSS#7 6.9200 0.0000)
*|S (VSS#8 4.6500 0.0000)
*|S (VSS#9 3.6800 0.0000)
*|S (VSS#11 2.4100 0.0000)
*|S (VSS#12 0.6900 0.0000)
*|S (VSS#13 0.0000 0.0000)
*|S (VSS#15 10.7600 0.8000)
*|S (VSS#17 9.3800 0.8000)
*|S (VSS#19 6.9200 0.8000)
*|S (VSS#21 4.6500 0.8000)
*|S (VSS#23 2.4100 0.8000)
*|S (VSS#25 0.6900 0.8000)
*|S (VSS#26 9.2000 0.0000)
*|S (VSS#27 3.6800 0.0000)
RfH100 VSS#1 VSS#2 37.587212 $L=0.7395 $W=0.25
RfH101 VSS#2 VSS#3 70.105621 $L=1.38 $W=0.25
RfH102 VSS#3 VSS#4 8.940811 $L=0.18 $W=0.25
RfH103 VSS#4 VSS#7 116.460808 $L=2.28 $W=0.25
RfH104 VSS#7 VSS#8 115.673615 $L=2.27 $W=0.25
RfH105 VSS#8 VSS#9 49.388809 $L=0.97 $W=0.25
RfH106 VSS#9 VSS#11 64.748810 $L=1.27 $W=0.25
RfH107 VSS#11 VSS#12 87.513618 $L=1.72 $W=0.25
RfH108 VSS#12 VSS#13 35.052811 $L=0.69 $W=0.25
RfH109 VSS#2 VSS#15 53.627445 $L=0.8 $W=0.17
RfH110 VSS#3 VSS#17 53.627445 $L=0.8 $W=0.17
RfH111 VSS#7 VSS#19 53.627445 $L=0.8 $W=0.17
RfH112 VSS#8 VSS#21 53.627445 $L=0.8 $W=0.17
RfH113 VSS#11 VSS#23 53.627445 $L=0.8 $W=0.17
RfH114 VSS#12 VSS#25 53.627445 $L=0.8 $W=0.17
ReH115 VSS#26 VSS 1.367188 $L=4.375 $W=0.4
ReH116 VSS VSS#27 0.357812 $L=1.145 $W=0.4
RhH117 MX67/M0#s VSS#15 15.000000 $A=0.0289
RhH118 MX66/M0#s VSS#17 15.000000 $A=0.0289
RhH119 MX92/M0#d VSS#19 15.000000 $A=0.0289
RhH120 MX69/M0#d VSS#21 15.000000 $A=0.0289
RhH121 MX89/M0#d VSS#23 15.000000 $A=0.0289
RhH122 MX79/M0#s VSS#25 15.000000 $A=0.0289
Rh_3_H123 VSS#5 VSS#4 1.666667 $A=0.2601
Rh_3_H124 VSS#5 VSS#9 1.000000 $A=0.4335
RjH125 VSS#4 VSS#26 16.888889 $A=0.2601
RjH126 VSS#9 VSS#27 10.133333 $A=0.4335
RmwH127 MX70/M0#s MX92/M0#d 0.001000 $W=1000000
RmwH128 MX68/M0#s MX89/M0#d 0.001000 $W=1000000
RmwH129 MX65/M0#s MX79/M0#s 0.001000 $W=1000000
RmwH130 MX64/M0#s MX67/M0#s 0.001000 $W=1000000
RmwH131 MX63/M0#s MX66/M0#s 0.001000 $W=1000000
*
*|NET D 4.47379e-16
*|P (D X 0 0.9350 1.4250)
*|I (MX79/M0#g MX79/M0 g X 0 0.9050 0.8000)
*|I (MX99/M0#g MX99/M0 g X 0 0.9050 3.2850)
*|S (D#8 0.9050 1.2900)
*|S (D#9 0.9050 1.1250)
*|S (D#10 0.9200 1.2900)
*|S (D#11 0.9050 1.2900)
*|S (D#12 0.9200 1.2900)
CB1 MX99/M0#g VSS 1.09929e-17
CB2 MX79/M0#g VSS 1.6263e-17
CB3 D#12 VSS 3.57544e-18
CB4 D#11 VSS 1.9647e-17
CB5 D VSS 1.01089e-17
CB6 D#11 38 1.35431e-17
CB7 MX79/M0#g 38 6.23002e-18
CB8 D#12 38 1.81572e-17
CB9 D#12 MX88/M0#d 1.96213e-18
CB10 MX79/M0#g MX88/M0#d 1.31748e-18
CB11 MX99/M0#g MX84/M0#d 9.93765e-19
CB12 D#11 2#23 5.63359e-18
CB13 D#12 2#23 3.36581e-17
CB14 D 2#23 3.92204e-17
CB15 D 2#22 4.07712e-18
CB16 MX79/M0#g MX65/M0#d 1.54951e-18
CB17 MX99/M0#g MX59/M0#d 1.14726e-18
CB18 MX99/M0#g 1#39 7.74754e-19
CB19 MX79/M0#g 1#47 7.30299e-19
CB20 D 1#50 4.84357e-18
CB21 D 1#49 3.58085e-17
CB22 D#11 1#46 5.625e-18
CB23 D 1#47 1.1894e-17
CB24 D#11 1#47 7.86146e-18
CB25 D#12 1#50 3.18055e-17
CB26 D#12 MX65/M0#d 3.33749e-18
CB27 D 1#46 1.24989e-17
CB28 D#11 1#50 7.54769e-18
CB29 D#12 VSS#12 2.7302e-18
CB30 D#12 VSS#27 2.01577e-17
CB31 MX79/M0#g VSS#12 3.64084e-18
CB32 D#12 MX79/M0#s 9.38709e-18
CB33 D#11 VSS#27 2.77917e-18
CB34 MX79/M0#g MX79/M0#s 6.22583e-18
CB35 D#11 MX79/M0#s 1.71838e-17
CB36 MX79/M0#g VSS#27 3.02836e-18
CB37 MX99/M0#g VDD 1.40161e-17
CB38 MX99/M0#g VDD#13 3.79442e-18
CB39 MX99/M0#g VDD#30 3.06762e-18
CB40 MX99/M0#g MX99/M0#s 7.97149e-18
RgB8 MX99/M0#g D#8 622.219055 $L=1.995 $W=0.15
RgB9 D#8 D#9 34.134449 $L=0.1645 $W=0.27
RgB10 D#9 MX79/M0#g 104.477959 $L=0.325 $W=0.15
RfB11 D#10 D#11 1.129412 $L=0.015 $W=0.17
ReB12 D D#12 0.064904 $L=0.135 $W=0.26
RjB13 D#10 D#12 152.000000 $A=0.0289
RiB14 D#8 D#11 15.000000 $A=0.0289
*
*|NET RN 4.91699e-16
*|P (RN X 0 6.9150 1.7500)
*|I (MX70/M0#g MX70/M0 g X 0 7.1350 0.8000)
*|I (MX73/M0#g MX73/M0 g X 0 7.2650 3.2850)
*|S (RN#8 7.2750 1.9700)
*|S (RN#9 7.1950 1.9700)
*|S (RN#10 7.1250 1.9700)
*|S (RN#11 7.1350 1.8045)
*|S (RN#12 7.1950 1.9700)
*|S (RN#13 6.9000 1.9700)
*|S (RN#14 6.9000 1.9700)
CE1 MX73/M0#g VSS 7.67758e-18
CE2 MX70/M0#g VSS 1.20093e-17
CE3 RN#12 VSS 1.18552e-17
CE4 RN#13 VSS 9.9363e-18
CE5 RN VSS 3.5729e-17
CE6 RN#12 20#22 1.923e-18
CE7 MX70/M0#g 20#24 1.5847e-18
CE8 MX70/M0#g MX70/M0#d 8.82995e-18
CE9 RN#13 20#23 3.59571e-18
CE10 MX73/M0#g MX73/M0#d 1.39974e-17
CE11 RN#12 MX73/M0#d 5.1502e-18
CE12 RN#12 MX70/M0#d 2.57275e-17
CE13 RN 20#24 3.99136e-17
CE14 RN 20#23 1.38417e-17
CE15 RN 20#22 6.37359e-18
CE16 RN#13 20#24 3.37158e-17
CE17 RN MX70/M0#d 1.53358e-17
CE18 RN#12 20#24 7.57759e-18
CE19 RN#13 20#22 8.50761e-18
CE20 MX70/M0#g 7#9 1.20883e-18
CE21 RN 7#9 5.12379e-17
CE22 MX73/M0#g 5#18 2.29216e-18
CE23 RN#12 5#18 5.96473e-18
CE24 RN 5#21 1.4122e-17
CE25 RN 5#19 4.5043e-17
CE26 RN 5#18 2.33512e-17
CE27 RN#13 5#19 3.67181e-18
CE28 MX70/M0#g MX92/M0#d 6.7752e-18
CE29 RN MX92/M0#d 5.87835e-18
CE30 MX70/M0#g VSS#7 2.81595e-18
CE31 MX73/M0#g VDD#7 3.79442e-18
CE32 MX73/M0#g VDD#29 2.61978e-18
CE33 RN VDD 2.34171e-17
CE34 MX73/M0#g VDD 7.37478e-18
CE35 MX73/M0#g MX73/M0#s 9.34104e-18
CE36 RN SN#23 1.95097e-17
RgE39 MX73/M0#g RN#8 386.609589 $L=1.315 $W=0.15
RgE40 RN#8 RN#9 18.279650 $L=0.08 $W=0.33
RgE41 RN#9 RN#10 17.808115 $L=0.07 $W=0.33
RgE42 RN#10 RN#11 18.145664 $L=0.165 $W=0.15
RgE43 RN#11 MX70/M0#g 323.847168 $L=1.0045 $W=0.15
RfE44 RN#12 RN#13 22.211765 $L=0.295 $W=0.17
ReE45 RN RN#14 0.105769 $L=0.22 $W=0.26
RjE46 RN#13 RN#14 152.000000 $A=0.0289
RiE47 RN#9 RN#12 15.000000 $A=0.0289
*
*|NET VDD 2.86234e-15
*|P (VDD X 0 4.8250 4.1450)
*|I (MX99/M0#s MX99/M0 s X 0 0.8295 3.2850)
*|I (MX98/M0#s MX98/M0 s X 0 6.2395 3.2850)
*|I (MX96/M0#s MX96/M0 s X 0 2.5495 3.2850)
*|I (MX93/M0#s MX93/M0 s X 0 4.2405 3.2850)
*|I (MX87/M0#d MX87/M0 d X 0 5.9605 3.2850)
*|I (MX85/M0#d MX85/M0 d X 0 2.2705 3.2850)
*|I (MX73/M0#s MX73/M0 s X 0 7.1895 3.2850)
*|I (MX62/M0#s MX62/M0 s X 0 10.6205 3.2450)
*|I (MX61/M0#s MX61/M0 s X 0 9.2405 3.2850)
*|I (MX60/M0#s MX60/M0 s X 0 9.5195 3.2850)
*|I (MX59/M0#s MX59/M0 s X 0 0.5505 3.2850)
*|I (MX58/M0#s MX58/M0 s X 0 10.8995 3.2450)
*|I (MM1#s MM1 s X 0 4.5195 3.2850)
*|S (VDD#1 11.4995 4.1400)
*|S (VDD#2 10.7600 4.1400)
*|S (VDD#3 9.3800 4.1400)
*|S (VDD#4 9.2000 4.1400)
*|S (VDD#5 9.2000 4.1400)
*|S (VDD#7 7.0500 4.1400)
*|S (VDD#8 6.1000 4.1400)
*|S (VDD#9 4.3800 4.1400)
*|S (VDD#10 3.6800 4.1400)
*|S (VDD#12 2.4100 4.1400)
*|S (VDD#13 0.6900 4.1400)
*|S (VDD#14 0.0000 4.1400)
*|S (VDD#16 10.7600 3.2450)
*|S (VDD#18 9.3800 3.2850)
*|S (VDD#20 7.0500 3.2850)
*|S (VDD#22 6.1000 3.2850)
*|S (VDD#24 4.3800 3.2850)
*|S (VDD#26 2.4100 3.2850)
*|S (VDD#28 0.6900 3.2850)
*|S (VDD#29 9.2000 4.1400)
*|S (VDD#30 3.6800 4.1400)
CG1 MX61/M0#s VSS 1.12486e-18
CG2 MX62/M0#s VSS 6.58274e-19
CG3 MX73/M0#s VSS 2.83463e-18
CG4 MX93/M0#s VSS 5.72645e-18
CG5 MX96/M0#s VSS 6.1576e-18
CG6 MX98/M0#s VSS 4.84027e-18
CG7 MX99/M0#s VSS 8.11517e-19
CG8 VDD#30 VSS 1.23341e-17
CG9 VDD#29 VSS 8.5833e-18
CG10 VDD#13 VSS 2.72826e-18
CG11 VDD#12 VSS 3.17719e-18
CG12 VDD#9 VSS 3.00534e-18
CG13 VDD#8 VSS 3.84177e-18
CG14 VDD#7 VSS 5.84445e-18
CG15 VDD#2 VSS 2.06361e-18
CG16 VDD#14 VSS 1.88477e-18
CG17 VDD#5 VSS 3.95937e-18
CG18 VDD VSS 8.49602e-18
CG19 VDD#5 46 4.82456e-18
CG20 VDD 46 3.10705e-18
CG21 VDD 44 4.79038e-18
CG22 VDD 40 6.4486e-18
CG23 VDD#12 44 4.90127e-18
CG24 MX99/M0#s 40 2.48906e-17
CG25 VDD#30 46 6.01814e-18
CG26 MX96/M0#s 44 2.62311e-17
CG27 VDD#30 44 4.67471e-18
CG28 VDD#30 40 7.72078e-18
CG29 MX93/M0#s 46 2.56318e-17
CG30 VDD#13 40 4.82456e-18
CG31 VDD#7 MX73/M0#d 6.99923e-18
CG32 VDD MX98/M0#g 6.559e-18
CG33 VDD#29 MX73/M0#d 5.61599e-18
CG34 MX98/M0#s 20#22 4.94418e-18
CG35 VDD#8 MX98/M0#g 3.79442e-18
CG36 VDD#9 20 3.77748e-18
CG37 VDD#30 20 3.21623e-18
CG38 VDD#30 MX98/M0#g 2.61978e-18
CG39 MX98/M0#s 20#23 2.40395e-18
CG40 MX73/M0#s MX73/M0#d 2.4962e-17
CG41 MX93/M0#s 20 7.96061e-18
CG42 VDD 20 1.36414e-17
CG43 MX98/M0#s MX98/M0#g 8.11705e-18
CG44 VDD 20#27 1.83857e-17
CG45 VDD 20#23 2.59989e-17
CG46 VDD 20#22 2.12174e-17
CG47 MX73/M0#s 20#22 1.00812e-17
CG48 VDD MX73/M0#d 1.51047e-17
CG49 VDD#2 10 4.36743e-18
CG50 MX62/M0#s 10#17 3.79378e-18
CG51 VDD#5 10#19 3.25311e-18
CG52 VDD#5 MX60/M0#d 6.14927e-18
CG53 VDD 10#20 5.97421e-18
CG54 MX61/M0#s 10#13 1.04782e-17
CG55 VDD 10#19 1.13362e-17
CG56 VDD 10 9.90411e-18
CG57 MX62/M0#s 10 1.0242e-17
CG58 MX61/M0#s 10#19 5.15787e-18
CG59 VDD#29 10#19 1.37331e-17
CG60 VDD 10#13 6.20814e-18
CG61 MX61/M0#s MX60/M0#d 1.83094e-17
CG62 VDD#29 MX60/M0#d 6.05611e-18
CG63 VDD 9#39 5.39912e-18
CG64 MX61/M0#s 9#39 5.3567e-18
CG65 VDD#29 MX60/M0#g 5.23343e-18
CG66 VDD#5 9 5.08181e-18
CG67 MX61/M0#s 9#36 4.9787e-18
CG68 VDD#5 MX61/M0#d 4.89553e-18
CG69 VDD 9 4.59184e-18
CG70 VDD#5 MX60/M0#g 4.3385e-18
CG71 VDD#29 9#36 3.72415e-18
CG72 VDD 9#31 3.48932e-18
CG73 VDD#29 MX62/M0#g 2.76058e-18
CG74 VDD#29 9#35 2.73588e-18
CG75 VDD#7 8#8 1.60233e-18
CG76 MX73/M0#s 8 1.19065e-17
CG77 VDD#29 9#39 1.37331e-17
CG78 VDD 9#40 3.64409e-17
CG79 VDD#29 MX61/M0#d 6.05611e-18
CG80 MX62/M0#s MX62/M0#g 9.0792e-18
CG81 MX61/M0#s MX60/M0#g 8.15937e-18
CG82 MX98/M0#s 8#10 6.45901e-18
CG83 VDD#30 8 4.55368e-18
CG84 VDD 8#3 5.75732e-18
CG85 VDD#7 MX74/M0#s 6.23261e-18
CG86 VDD 8#10 6.9898e-18
CG87 MX73/M0#s 8#3 6.0882e-18
CG88 MX98/M0#s 8 1.61242e-17
CG89 VDD#8 8 3.57014e-18
CG90 VDD MX60/M0#g 1.20553e-17
CG91 VDD 8#8 5.02531e-18
CG92 VDD 8#6 3.4833e-18
CG93 VDD#2 MX62/M0#g 5.84923e-18
CG94 VDD#29 MX74/M0#s 4.56842e-18
CG95 VDD MX62/M0#g 1.10862e-17
CG96 MX73/M0#s 8#10 1.6742e-17
CG97 MX61/M0#s MX61/M0#d 1.79724e-17
CG98 MX98/M0#s 8#3 8.20973e-18
CG99 MX61/M0#s 9#31 8.20973e-18
CG100 VDD MX74/M0#d 4.20453e-18
CG101 MX93/M0#s 6#9 3.97059e-18
CG102 VDD MX87/M0#s 2.89665e-18
CG103 VDD#30 6#8 2.84787e-18
CG104 VDD#30 MX87/M0#s 4.66367e-18
CG105 MX73/M0#s 6#9 1.35234e-17
CG106 MX73/M0#s 6#8 1.31432e-17
CG107 VDD#5 6#8 7.35686e-18
CG108 VDD 6#9 1.14559e-17
CG109 MX61/M0#s 6#8 5.25469e-18
CG110 VDD#8 6#9 1.16345e-17
CG111 VDD#8 MX87/M0#s 7.35476e-18
CG112 VDD 6#8 1.09879e-17
CG113 VDD#29 6#8 9.94086e-17
CG114 VDD#7 6#9 4.73749e-18
CG115 VDD#5 MX74/M0#d 8.85428e-18
CG116 VDD#29 MX74/M0#d 4.52654e-18
CG117 VDD#30 6#9 1.02032e-16
CG118 VDD#7 6#8 1.2434e-17
CG119 MX98/M0#s MX87/M0#s 2.67333e-17
CG120 MX98/M0#s 6#9 2.98748e-17
CG121 MX61/M0#s 5 8.15937e-18
CG122 MX98/M0#s 5#19 6.75355e-18
CG123 VDD#30 MX86/M0#s 6.03657e-18
CG124 VDD#29 5#16 5.27324e-18
CG125 VDD#29 5 5.23343e-18
CG126 VDD#30 5#19 3.9725e-18
CG127 VDD#5 5 3.79442e-18
CG128 MX73/M0#s 5#18 3.73308e-18
CG129 VDD#9 MX86/M0#s 3.7015e-18
CG130 VDD 5#12 3.27294e-18
CG131 VDD#8 5#19 2.99392e-18
CG132 VDD#29 5#17 2.77017e-18
CG133 VDD#8 MX86/M0#s 2.42389e-18
CG134 VDD#5 5#17 1.94162e-18
CG135 VDD 5#20 1.16317e-17
CG136 VDD 5#16 2.08661e-17
CG137 VDD 5 1.39372e-17
CG138 VDD 5#19 2.53354e-17
CG139 VDD 5#18 4.66885e-17
CG140 VDD#30 5#20 1.28835e-17
CG141 VDD 5#17 1.43146e-17
CG142 MX61/M0#s 5#16 8.45701e-18
CG143 MX93/M0#s 4#16 8.03605e-18
CG144 MX96/M0#s 4 7.93806e-18
CG145 VDD 4 7.51243e-18
CG146 VDD#5 MX97/M0#d 7.403e-18
CG147 VDD#9 MX83/M0#s 6.14927e-18
CG148 VDD#30 MX83/M0#s 6.05611e-18
CG149 VDD#30 MX97/M0#d 6.05611e-18
CG150 VDD#5 4#30 5.2139e-18
CG151 VDD#9 4#29 3.94218e-18
CG152 VDD#12 4 3.79442e-18
CG153 VDD 4#13 3.01849e-18
CG154 VDD 4#16 2.78307e-18
CG155 MX93/M0#s MX83/M0#s 1.90316e-17
CG156 VDD 4#29 1.32086e-17
CG157 VDD#30 4#29 2.65928e-17
CG158 VDD#30 4#30 2.8625e-17
CG159 MX93/M0#s 4#29 2.21487e-17
CG160 VDD MX86/M0#g 8.89744e-18
CG161 MX96/M0#s 3#27 8.20973e-18
CG162 VDD#12 MX96/M0#d 6.24863e-18
CG163 MX96/M0#s 3#36 5.77151e-18
CG164 VDD#30 3#34 5.40132e-18
CG165 VDD#30 3 5.23343e-18
CG166 VDD#13 3 5.08181e-18
CG167 VDD#8 MX86/M0#g 5.08181e-18
CG168 VDD#30 3#33 4.94431e-18
CG169 VDD#30 MX96/M0#d 4.68246e-18
CG170 VDD#30 3#35 4.4937e-18
CG171 VDD#5 3#34 3.17794e-18
CG172 VDD 3#27 3.12834e-18
CG173 VDD#30 MX86/M0#g 2.21787e-18
CG174 VDD#9 3#33 2.1584e-18
CG175 MX99/M0#s 3 1.69367e-18
CG176 MX96/M0#s MX96/M0#d 1.63934e-17
CG177 MX93/M0#s 3#33 1.01221e-17
CG178 VDD 3#35 3.43759e-17
CG179 VDD 3#33 2.55721e-17
CG180 VDD 3 1.58763e-17
CG181 VDD 3#34 4.03213e-17
CG182 MX96/M0#s 3#34 1.26974e-17
CG183 VDD 3#37 1.0326e-17
CG184 VDD 2#17 7.1499e-18
CG185 VDD#5 2#20 6.93476e-18
CG186 VDD 2#21 5.81617e-18
CG187 VDD#5 2 5.08181e-18
CG188 VDD#30 MX84/M0#d 4.68246e-18
CG189 MX99/M0#s 2#21 4.04095e-18
CG190 VDD#13 MX84/M0#d 3.76154e-18
CG191 MX93/M0#s 2#20 3.7388e-18
CG192 VDD#12 MX84/M0#d 3.73728e-18
CG193 VDD#30 2 3.22699e-18
CG194 VDD#13 2#21 2.77847e-18
CG195 VDD#12 2#20 2.59039e-18
CG196 VDD 2#13 2.5227e-18
CG197 VDD 2#22 1.14982e-17
CG198 VDD#30 2#21 9.55695e-17
CG199 VDD 2#20 2.72195e-17
CG200 VDD#12 2#21 1.63831e-17
CG201 VDD#30 2#20 3.51328e-17
CG202 VDD 2 1.58975e-17
CG203 VDD 2#18 9.20723e-18
CG204 MX96/M0#s 2#21 2.98194e-17
CG205 MX96/M0#s MX96/M0#g 8.50492e-18
CG206 MX99/M0#s 1#39 8.20966e-18
CG207 VDD MX96/M0#g 7.5256e-18
CG208 VDD 1#39 6.84466e-18
CG209 VDD#30 MX59/M0#d 6.03657e-18
CG210 VDD#30 MX83/M0#g 5.23343e-18
CG211 VDD#9 MX83/M0#g 5.08181e-18
CG212 VDD#12 1 5.08181e-18
CG213 VDD#14 MX59/M0#d 4.72837e-18
CG214 MX99/M0#s 1#48 4.70703e-18
CG215 VDD#30 1#47 4.00746e-18
CG216 VDD#12 MX96/M0#g 3.79442e-18
CG217 VDD#30 MX96/M0#g 2.65704e-18
CG218 VDD MX83/M0#g 1.66225e-17
CG219 VDD#30 1#48 1.37331e-17
CG220 VDD MX59/M0#d 1.10449e-17
CG221 MX99/M0#s MX59/M0#d 1.92049e-17
CG222 VDD 1 9.43242e-18
CG223 VDD 1#49 2.63827e-17
CG224 VDD 1#48 2.98041e-17
RfG64 VDD#1 VDD#2 37.587212 $L=0.7395 $W=0.25
RfG65 VDD#2 VDD#3 70.105621 $L=1.38 $W=0.25
RfG66 VDD#3 VDD#4 8.940811 $L=0.18 $W=0.25
RfG67 VDD#4 VDD#7 109.804810 $L=2.15 $W=0.25
RfG68 VDD#7 VDD#8 48.089619 $L=0.95 $W=0.25
RfG69 VDD#8 VDD#9 87.513618 $L=1.72 $W=0.25
RfG70 VDD#9 VDD#10 35.564812 $L=0.7 $W=0.25
RfG71 VDD#10 VDD#12 64.748810 $L=1.27 $W=0.25
RfG72 VDD#12 VDD#13 87.513618 $L=1.72 $W=0.25
RfG73 VDD#13 VDD#14 35.052811 $L=0.69 $W=0.25
RfG74 VDD#2 VDD#16 60.780384 $L=0.895 $W=0.17
RfG75 VDD#3 VDD#18 57.768620 $L=0.855 $W=0.17
RfG76 VDD#7 VDD#20 57.768620 $L=0.855 $W=0.17
RfG77 VDD#8 VDD#22 57.768620 $L=0.855 $W=0.17
RfG78 VDD#9 VDD#24 57.768620 $L=0.855 $W=0.17
RfG79 VDD#12 VDD#26 57.768620 $L=0.855 $W=0.17
RfG80 VDD#13 VDD#28 57.768620 $L=0.855 $W=0.17
ReG81 VDD#29 VDD 1.367188 $L=4.375 $W=0.4
ReG82 VDD VDD#30 0.357812 $L=1.145 $W=0.4
Rh_1_G83 VDD#5 VDD#4 1.666667 $A=0.2601
Rh_1_G84 VDD#5 VDD#10 1.000000 $A=0.4335
Rh_2_G85 MX62/M0#s VDD#16 15.000000 $A=0.0289
Rh_2_G86 MX61/M0#s VDD#18 15.000000 $A=0.0289
Rh_2_G87 MX73/M0#s VDD#20 15.000000 $A=0.0289
Rh_2_G88 MX98/M0#s VDD#22 15.000000 $A=0.0289
Rh_2_G89 MX93/M0#s VDD#24 15.000000 $A=0.0289
Rh_2_G90 MX96/M0#s VDD#26 15.000000 $A=0.0289
Rh_2_G91 MX99/M0#s VDD#28 15.000000 $A=0.0289
RjG92 VDD#4 VDD#29 16.888889 $A=0.2601
RjG93 VDD#10 VDD#30 10.133333 $A=0.4335
RmwG94 MX87/M0#d MX98/M0#s 0.001000 $W=1000000
RmwG95 MX85/M0#d MX96/M0#s 0.001000 $W=1000000
RmwG96 MX60/M0#s MX61/M0#s 0.001000 $W=1000000
RmwG97 MX59/M0#s MX99/M0#s 0.001000 $W=1000000
RmwG98 MX58/M0#s MX62/M0#s 0.001000 $W=1000000
RmwG99 MM1#s MX93/M0#s 0.001000 $W=1000000
*
*|NET 2 1.5911e-15
*|I (MX88/M0#d MX88/M0 d X 0 1.4105 0.8000)
*|I (MX80/M0#g MX80/M0 g X 0 3.5750 0.8000)
*|I (MX78/M0#s MX78/M0 s X 0 1.6895 0.8000)
*|I (MX97/M0#g MX97/M0 g X 0 3.7350 3.2850)
*|I (MX84/M0#d MX84/M0 d X 0 1.4105 3.2850)
*|I (MM0#s MM0 s X 0 1.6895 3.2850)
*|S (2 3.7350 3.2850)
*|S (2#8 3.5150 2.4745)
*|S (2#9 3.5150 2.3100)
*|S (2#10 3.5150 2.1450)
*|S (2#12 1.5500 3.2850)
*|S (2#13 1.5500 3.0900)
*|S (2#14 1.5500 0.8500)
*|S (2#16 1.5500 0.8000)
*|S (2#17 3.5150 2.3100)
*|S (2#18 3.2100 2.3100)
*|S (2#19 3.2100 2.3100)
*|S (2#20 3.2100 2.4545)
*|S (2#21 1.5500 3.4900)
*|S (2#22 1.5500 3.0900)
*|S (2#23 1.5500 0.8500)
CJ1 MX84/M0#d VSS 2.43104e-18
CJ2 MX80/M0#g VSS 1.33282e-17
CJ3 MX88/M0#d VSS 2.59531e-18
CJ4 2#23 VSS 2.16544e-17
CJ5 2#22 VSS 4.91027e-18
CJ6 2#21 VSS 5.41393e-18
CJ7 2#20 VSS 1.76572e-17
CJ8 2#17 VSS 4.67438e-18
CJ9 2#13 VSS 3.86158e-18
CJ10 2#18 VSS 4.9872e-19
CJ11 2 VSS 5.88001e-18
CJ12 MX80/M0#g 53#4 1.09058e-18
CJ13 2#22 44 7.68551e-18
CJ14 MX88/M0#d 42 1.93352e-17
CJ15 2#21 44 2.40375e-17
CJ16 MX84/M0#d 40 1.56161e-17
CJ17 MX80/M0#g 53 5.01943e-18
CJ18 2#20 53#8 4.81801e-18
CJ19 2#13 44 1.18737e-17
CJ20 2#20 46 4.2209e-18
CJ21 MX80/M0#g 53#8 2.01994e-18
CJ22 MX88/M0#d 38 1.93352e-17
CJ23 2#23 38 6.61254e-18
CJ24 2 46 9.49153e-18
CJ25 2#13 40 1.18737e-17
CJ26 2#23 42 7.43358e-18
CJ27 2#22 40 5.89608e-18
CJ28 2#21 40 4.94169e-18
CJ29 MX84/M0#d 44 1.54675e-17
CJ30 2#17 20#27 1.13136e-17
CJ31 2 MX97/M0#d 5.56199e-18
CJ32 2#20 4#13 5.2272e-18
CJ33 2#20 4#18 4.18671e-18
CJ34 MX80/M0#g 4#18 3.9095e-18
CJ35 2 4#13 3.70374e-18
CJ36 2#17 4#30 3.11172e-18
CJ37 2#20 4#29 1.97665e-18
CJ38 MX88/M0#d MX89/M0#g 1.31748e-18
CJ39 2#21 4 1.19897e-18
CJ40 2#20 MX83/M0#s 1.19092e-18
CJ41 MX80/M0#g 4#19 1.13782e-17
CJ42 2#20 MX97/M0#d 1.20975e-17
CJ43 2#20 4#30 6.24031e-17
CJ44 2#23 4#22 1.06711e-17
CJ45 2 3#34 7.40766e-18
CJ46 2#21 MX96/M0#d 6.91352e-18
CJ47 MX88/M0#d MX78/M0#g 6.2356e-18
CJ48 2#21 3#34 6.09239e-18
CJ49 MX84/M0#d 3 4.64025e-18
CJ50 2#20 3#27 4.37814e-18
CJ51 2#21 3#35 3.71712e-18
CJ52 2#13 3 3.12101e-18
CJ53 MX80/M0#g MX68/M0#d 1.85635e-18
CJ54 2#23 MX78/M0#g 1.52414e-18
CJ55 2#23 3#38 1.73282e-17
CJ56 2#22 3#37 1.58479e-17
CJ57 2#21 3#36 2.37334e-17
CJ58 2#13 3#35 2.15409e-17
CJ59 2#23 3#32 2.79124e-17
CJ60 2#20 3#36 6.47482e-17
CJ61 2#20 MX96/M0#d 1.35322e-17
CJ62 MX88/M0#d 3#32 1.20501e-17
CJ63 2#23 3#39 8.08454e-18
CJ64 2#20 3#37 1.01508e-16
CJ65 2#22 3#36 9.92429e-18
CJ66 2#22 3#35 5.27922e-17
CJ67 2#17 3#34 3.15215e-17
CJ68 2#20 3#34 3.74975e-17
CJ69 2#18 3#34 2.98827e-17
CJ70 2#18 3#37 8.45352e-18
CJ71 MX88/M0#d VSS#27 5.55311e-18
CJ72 MX80/M0#g VSS#5 3.67795e-18
CJ73 MX88/M0#d VSS#12 3.62342e-18
CJ74 MX88/M0#d VSS#11 3.60004e-18
CJ75 MX80/M0#g VSS#27 2.93004e-18
CJ76 2#20 VSS#5 2.86119e-18
CJ77 2#23 VSS#27 2.07771e-17
RgJ167 2 2#8 269.199402 $L=0.97 $W=0.15
RgJ168 2#8 2#9 38.857975 $L=0.1645 $W=0.27
RgJ169 2#9 2#10 29.410927 $L=0.1645 $W=0.27
RgJ170 2#10 MX80/M0#g 432.237946 $L=1.345 $W=0.15
RfJ171 2#12 2#13 14.682353 $L=0.195 $W=0.17
RfJ172 2#14 2#16 3.764706 $L=0.05 $W=0.17
RfJ173 2#17 2#18 22.964706 $L=0.305 $W=0.17
ReJ174 2#19 2#20 0.078668 $L=0.1445 $W=0.23
ReJ175 2#20 2#21 1.855929 $L=2.665 $W=0.17
ReJ176 2#21 2#22 0.207148 $L=0.4 $W=0.23
ReJ177 2#22 2#23 1.217391 $L=2.24 $W=0.23
RhJ178 MX88/M0#d 2#16 15.000000 $A=0.0289
Rh_2_J179 MX84/M0#d 2#12 15.000000 $A=0.0289
RjJ180 2#18 2#19 152.000000 $A=0.0289
RjJ181 2#13 2#22 152.000000 $A=0.0289
RjJ182 2#14 2#23 152.000000 $A=0.0289
RiJ183 2#9 2#17 15.000000 $A=0.0289
RmwJ184 MX78/M0#s MX88/M0#d 0.001000 $W=1000000
RmwJ185 MX97/M0#g 2 0.001000 $W=1000000
RmwJ186 MM0#s MX84/M0#d 0.001000 $W=1000000
*
*|NET QN 7.19819e-16
*|P (QN X 0 11.0550 2.1300)
*|I (MX67/M0#d MX67/M0 d X 0 11.0505 0.8000)
*|I (MX58/M0#d MX58/M0 d X 0 11.0505 3.2450)
*|S (QN#1 11.1900 3.3050)
*|S (QN#3 11.1900 3.2450)
*|S (QN#4 11.1900 2.9825)
*|S (QN#5 11.1900 0.8000)
*|S (QN#8 11.1900 3.3050)
*|S (QN#9 11.1900 2.9825)
*|S (QN#10 11.0925 2.4200)
*|S (QN#11 11.0925 1.3495)
*|S (QN#12 11.1900 0.8000)
CD1 MX58/M0#d VSS 3.58825e-18
CD2 QN#12 VSS 2.74205e-17
CD3 QN#11 VSS 2.81124e-17
CD4 QN#10 VSS 4.56139e-19
CD5 QN#8 VSS 5.71697e-19
CD6 QN#5 VSS 3.418e-18
CD7 QN#4 VSS 3.13911e-18
CD8 QN VSS 1.77576e-17
CD9 QN#4 10 2.6208e-18
CD10 QN#8 10 2.15589e-18
CD11 MX58/M0#d 10 7.51842e-18
CD12 QN#5 10#17 4.93796e-18
CD13 QN#5 MX67/M0#g 6.8796e-18
CD14 QN#11 10#17 2.94275e-17
CD15 QN 9#35 6.57725e-18
CD16 QN#12 VSS#1 2.27719e-18
CD17 QN#5 VSS#26 4.74282e-18
CD18 QN#12 VSS#26 3.44523e-17
CD19 QN#12 VSS#2 6.04345e-18
CD20 QN#5 MX67/M0#s 1.86161e-17
CD21 QN#12 MX67/M0#s 1.18511e-17
CD22 QN#5 VSS#1 4.08004e-18
CD23 QN#8 VDD#1 2.28665e-18
CD24 QN#4 MX62/M0#s 6.80816e-18
CD25 MX58/M0#d VDD#1 4.16364e-18
CD26 QN#10 VDD 2.7538e-17
CD27 QN#8 VDD 4.05878e-17
CD28 QN#8 MX62/M0#s 1.51981e-17
CD29 MX58/M0#d MX62/M0#s 2.02755e-17
CD30 QN VDD 1.18842e-17
CD31 MX58/M0#d VDD#29 4.70308e-18
CD32 QN#8 VDD#29 3.50787e-17
CD33 QN#8 VDD#2 6.11174e-18
RfD27 QN#1 QN#3 4.517647 $L=0.06 $W=0.17
RfD28 QN#3 QN#4 19.764706 $L=0.2625 $W=0.17
ReD29 QN#8 QN#9 0.110445 $L=0.3225 $W=0.365
ReD30 QN#9 QN#10 0.192551 $L=0.562 $W=0.365
ReD31 QN#10 QN 0.139509 $L=0.29 $W=0.26
ReD32 QN QN#11 0.375086 $L=0.78 $W=0.26
ReD33 QN#11 QN#12 0.198794 $L=0.5495 $W=0.365
RhD34 MX67/M0#d QN#5 15.000000 $A=0.0289
Rh_2_D35 MX58/M0#d QN#3 15.000000 $A=0.0289
RjD36 QN#1 QN#8 152.000000 $A=0.0289
RjD37 QN#4 QN#9 152.000000 $A=0.01615
RjD38 QN#5 QN#12 152.000000 $A=0.0289
*
*|NET SN 1.02113e-15
*|P (SN X 0 4.1550 1.6700)
*|I (MX92/M0#g MX92/M0 g X 0 6.7050 0.8000)
*|I (MX69/M0#g MX69/M0 g X 0 4.4350 0.8000)
*|I (MX87/M0#g MX87/M0 g X 0 5.8850 3.2850)
*|I (MM1#g MM1 g X 0 4.5950 3.2850)
*|S (SN#15 4.5600 2.8295)
*|S (SN#16 4.5600 2.6800)
*|S (SN#17 4.5750 1.2900)
*|S (SN#18 4.4950 1.2900)
*|S (SN#19 4.4050 1.2900)
*|S (SN#20 4.4350 1.1245)
*|S (SN#21 6.7150 1.2900)
*|S (SN#22 6.7150 1.4545)
*|S (SN#23 6.7150 1.2900)
*|S (SN#24 4.4950 1.2900)
*|S (SN#25 4.1400 1.2900)
*|S (SN#26 4.1400 1.2900)
CF1 MM1#g VSS 6.48998e-18
CF2 MX87/M0#g VSS 9.15852e-18
CF3 MX69/M0#g VSS 1.8819e-17
CF4 MX92/M0#g VSS 1.30843e-17
CF5 SN#26 VSS 5.92935e-18
CF6 SN#24 VSS 2.39085e-17
CF7 SN#23 VSS 2.51997e-17
CF8 SN#25 VSS 9.79368e-18
CF9 SN VSS 6.29421e-18
CF10 MX92/M0#g 54#3 5.28844e-18
CF11 SN#23 54#3 1.72959e-17
CF12 SN#26 53#4 5.40313e-18
CF13 SN#24 53#7 2.62847e-18
CF14 MX69/M0#g 53#4 5.54623e-18
CF15 SN#25 53#7 4.84263e-18
CF16 SN#26 53#7 3.9846e-17
CF17 SN#25 53#4 1.24789e-17
CF18 SN#23 20#23 3.14762e-18
CF19 MX87/M0#g 20#23 2.99103e-18
CF20 SN#26 MX94/M0#g 2.82719e-18
CF21 MM1#g 20#27 1.38168e-18
CF22 SN#25 MX94/M0#g 6.68491e-18
CF23 SN#23 20#24 6.34858e-17
CF24 SN#23 MX70/M0#d 6.77515e-18
CF25 SN#23 MX91/M0#g 8.32938e-18
CF26 SN 20#27 2.13119e-17
CF27 SN#23 MX91/M0#s 2.15509e-17
CF28 SN#23 7#9 2.18183e-17
CF29 MX87/M0#g MX87/M0#s 7.74156e-18
CF30 MX87/M0#g 5#19 3.14317e-18
CF31 SN#24 5#19 1.99106e-18
CF32 SN#24 MX95/M0#d 8.95147e-18
CF33 SN#24 5#21 1.57303e-17
CF34 SN#23 5#19 5.70159e-18
CF35 SN#23 MX95/M0#d 1.23255e-17
CF36 SN#23 5#21 2.24842e-17
CF37 SN#25 4#17 4.70395e-18
CF38 MM1#g MX83/M0#s 4.60376e-18
CF39 MM1#g 4#16 3.12101e-18
CF40 MX69/M0#g 4#23 1.42377e-18
CF41 SN#26 4#17 1.36644e-18
CF42 SN#26 4#19 5.56648e-18
CF43 SN#24 4#28 2.96834e-17
CF44 SN#24 4#27 8.40794e-18
CF45 SN 4#30 8.8238e-18
CF46 SN#25 4#19 1.38454e-17
CF47 SN 4#29 6.87149e-18
CF48 SN#25 4#18 3.18604e-17
CF49 SN 4#28 3.97604e-17
CF50 SN#26 4#18 9.49287e-18
CF51 SN#24 4#17 5.71845e-17
CF52 SN#24 4#23 1.96162e-17
CF53 SN#26 4#27 5.6418e-18
CF54 SN 4#18 1.62418e-17
CF55 SN 4#17 5.99571e-18
CF56 SN#26 4#28 2.01509e-17
CF57 SN 3#37 3.6749e-18
CF58 SN 3#34 3.00337e-18
CF59 SN 3#33 2.75731e-18
CF60 MM1#g 3#33 5.29757e-18
CF61 SN 3#38 8.68811e-18
CF62 SN#26 3#38 1.0395e-17
CF63 SN#24 MX95/M0#g 9.42251e-18
CF64 SN 2#20 9.42999e-18
CF65 SN#24 1#43 7.52345e-18
CF66 SN#23 1#43 1.44033e-17
CF67 SN 1#44 2.89807e-17
CF68 SN#24 1#44 1.42602e-17
CF69 SN#23 MX90/M0#g 9.39031e-18
CF70 MX69/M0#g VSS#27 4.06748e-18
CF71 SN#23 VSS#7 3.90846e-18
CF72 MX69/M0#g VSS#8 3.64084e-18
CF73 MX92/M0#g VSS#7 3.64084e-18
CF74 SN#23 VSS#27 3.01857e-18
CF75 MX92/M0#g VSS#27 2.46721e-18
CF76 SN#24 MX69/M0#d 2.48144e-17
CF77 SN#24 VSS#27 5.63327e-18
CF78 MX69/M0#g MX69/M0#d 7.45977e-18
CF79 MX92/M0#g MX92/M0#d 6.2342e-18
CF80 SN#23 MX92/M0#d 9.23399e-18
CF81 SN#24 VSS#8 5.19774e-18
CF82 MX87/M0#g VDD#8 4.3385e-18
CF83 MM1#g VDD#9 3.79442e-18
CF84 MM1#g VDD#30 3.22699e-18
CF85 SN VDD 3.02033e-18
CF86 MX87/M0#g MX98/M0#s 7.73235e-18
CF87 MM1#g MX93/M0#s 7.72058e-18
CF88 MX87/M0#g VDD 6.5514e-18
CF89 MM1#g VDD 1.39545e-17
RgF48 MM1#g SN#15 146.261444 $L=0.455 $W=0.15
RgF49 SN#15 SN#16 45.704208 $L=0.149 $W=0.17
RgF50 SN#16 SN#17 420.642944 $L=1.39 $W=0.15
RgF51 SN#17 SN#18 18.690159 $L=0.08 $W=0.33
RgF52 SN#18 SN#19 26.775394 $L=0.09 $W=0.33
RgF53 SN#19 SN#20 27.935175 $L=0.165 $W=0.15
RgF54 SN#20 MX69/M0#g 112.005173 $L=0.3245 $W=0.15
RgF55 MX92/M0#g SN#21 133.888885 $L=0.49 $W=0.15
RgF56 SN#21 SN#22 34.134449 $L=0.1645 $W=0.27
RgF57 SN#22 MX87/M0#g 809.039429 $L=2.65 $W=0.15
RfF58 SN#23 SN#24 167.152939 $L=2.22 $W=0.17
RfF59 SN#24 SN#25 26.729412 $L=0.355 $W=0.17
ReF60 SN SN#26 0.182692 $L=0.38 $W=0.26
RjF61 SN#25 SN#26 152.000000 $A=0.0289
RiF62 SN#21 SN#23 15.000000 $A=0.0289
RiF63 SN#18 SN#24 15.000000 $A=0.0289
*
*|NET 20 1.46286e-15
*|I (MX94/M0#g MX94/M0 g X 0 4.0050 0.8000)
*|I (MX91/M0#g MX91/M0 g X 0 6.2750 0.8000)
*|I (MX70/M0#d MX70/M0 d X 0 7.2105 0.8000)
*|I (MX98/M0#g MX98/M0 g X 0 6.3150 3.2850)
*|I (MX93/M0#g MX93/M0 g X 0 4.1650 3.2850)
*|I (MX73/M0#d MX73/M0 d X 0 7.3405 3.2850)
*|S (20 4.1650 3.2850)
*|S (20#15 4.1050 2.3100)
*|S (20#16 6.2650 1.5800)
*|S (20#17 6.2650 1.7450)
*|S (20#18 6.3450 2.8145)
*|S (20#19 6.3450 2.6500)
*|S (20#21 7.4800 3.2850)
*|S (20#22 6.3450 2.6500)
*|S (20#23 6.2650 2.3100)
*|S (20#24 6.2650 1.7450)
*|S (20#26 7.3500 0.8000)
*|S (20#27 4.1050 2.3100)
CQ1 MX73/M0#d VSS 5.32934e-18
CQ2 MX98/M0#g VSS 7.6134e-18
CQ3 MX70/M0#d VSS 3.74003e-17
CQ4 MX91/M0#g VSS 1.96566e-17
CQ5 MX94/M0#g VSS 2.60824e-17
CQ6 20#27 VSS 8.77202e-18
CQ7 20#24 VSS 3.01467e-17
CQ8 20#23 VSS 6.92721e-18
CQ9 20#22 VSS 4.90374e-18
CQ10 20 VSS 1.7947e-17
CQ11 MX70/M0#d 54#6 7.48903e-18
CQ12 MX91/M0#g 54#3 5.28844e-18
CQ13 MX70/M0#d 54#7 1.12907e-17
CQ14 MX70/M0#d VSS#7 6.21801e-18
CQ15 MX94/M0#g VSS#5 5.2244e-18
CQ16 MX70/M0#d VSS#26 5.11355e-18
CQ17 MX91/M0#g VSS#7 4.87612e-18
CQ18 20#24 MX92/M0#d 3.27182e-18
CQ19 MX94/M0#g VSS#27 2.93004e-18
CQ20 MX70/M0#d MX92/M0#d 1.94806e-17
RgQ333 20 20#15 313.299988 $L=0.975 $W=0.15
RgQ334 20#15 MX94/M0#g 485.213318 $L=1.51 $W=0.15
RgQ335 MX91/M0#g 20#16 250.684631 $L=0.78 $W=0.15
RgQ336 20#16 20#17 34.134449 $L=0.1645 $W=0.27
RgQ337 MX98/M0#g 20#18 151.071289 $L=0.47 $W=0.15
RgQ338 20#18 20#19 34.134449 $L=0.1645 $W=0.27
RfQ339 20#21 20#22 127.622314 $L=1.77 $W=0.17
RfQ340 20#22 20#23 25.110048 $L=0.34 $W=0.17
RfQ341 20#23 20#24 42.051228 $L=0.565 $W=0.17
RfQ342 20#24 20#26 138.539963 $L=1.915 $W=0.17
RfQ343 20#23 20#27 157.398911 $L=2.16 $W=0.17
RhQ344 MX70/M0#d 20#26 15.000000 $A=0.0289
Rh_2_Q345 MX73/M0#d 20#21 15.000000 $A=0.0289
RiQ346 20#19 20#22 15.000000 $A=0.0289
RiQ347 20#17 20#24 15.000000 $A=0.0289
RiQ348 20#15 20#27 15.000000 $A=0.0289
RmwQ349 MX93/M0#g 20 0.001000 $W=1000000
*
*|NET 10 9.04621e-16
*|I (MX67/M0#g MX67/M0 g X 0 10.9750 0.8000)
*|I (MX66/M0#d MX66/M0 d X 0 9.6705 0.8000)
*|I (MX60/M0#d MX60/M0 d X 0 9.6705 3.2850)
*|I (MX58/M0#g MX58/M0 g X 0 10.9750 3.2450)
*|S (10 10.9750 3.2450)
*|S (10#8 11.0350 1.7945)
*|S (10#9 11.0350 1.6300)
*|S (10#10 11.0350 1.4650)
*|S (10#12 9.8100 3.2850)
*|S (10#13 9.8100 3.0900)
*|S (10#14 9.8100 0.8500)
*|S (10#16 9.8100 0.8000)
*|S (10#17 11.0350 1.6300)
*|S (10#18 9.8100 1.6300)
*|S (10#19 9.8100 3.0900)
*|S (10#20 9.8100 1.6300)
*|S (10#21 9.8100 0.8500)
CP1 MX60/M0#d VSS 3.0077e-18
CP2 MX66/M0#d VSS 5.93434e-18
CP3 MX67/M0#g VSS 1.29904e-17
CP4 10#21 VSS 4.57008e-18
CP5 10#20 VSS 6.70118e-18
CP6 10#19 VSS 2.1116e-18
CP7 10#17 VSS 2.3495e-17
CP8 10#18 VSS 2.48309e-17
CP9 10#13 VSS 2.25151e-18
CP10 10 VSS 4.5947e-18
CP11 MX67/M0#g VSS#2 4.29097e-18
CP12 MX67/M0#g VSS#26 2.74533e-18
CP13 MX66/M0#d MX66/M0#s 2.25619e-17
CP14 10#21 MX66/M0#s 6.39346e-18
CP15 10#17 MX67/M0#s 9.69762e-18
CP16 MX66/M0#d VSS#3 6.01954e-18
CP17 10#18 VSS#26 7.10092e-18
CP18 MX66/M0#d VSS#26 5.476e-18
CP19 MX67/M0#g MX67/M0#s 7.3052e-18
CP20 10#21 VSS#26 1.74471e-17
CP21 10#21 VSS#3 5.37701e-18
RgP317 10 10#8 465.977966 $L=1.45 $W=0.15
RgP318 10#8 10#9 38.857975 $L=0.1645 $W=0.27
RgP319 10#9 10#10 29.410927 $L=0.1645 $W=0.27
RgP320 10#10 MX67/M0#g 213.731293 $L=0.665 $W=0.15
RfP321 10#12 10#13 14.682353 $L=0.195 $W=0.17
RfP322 10#14 10#16 3.764706 $L=0.05 $W=0.17
RfP323 10#17 10#18 92.235298 $L=1.225 $W=0.17
ReP324 10#19 10#20 0.793478 $L=1.46 $W=0.23
ReP325 10#20 10#21 0.423913 $L=0.78 $W=0.23
RhP326 MX66/M0#d 10#16 15.000000 $A=0.0289
Rh_2_P327 MX60/M0#d 10#12 15.000000 $A=0.0289
RjP328 10#13 10#19 152.000000 $A=0.0289
RjP329 10#18 10#20 152.000000 $A=0.0289
RjP330 10#14 10#21 152.000000 $A=0.0289
RiP331 10#9 10#17 15.000000 $A=0.0289
RmwP332 MX58/M0#g 10 0.001000 $W=1000000
*
*|NET 8 6.87547e-16
*|I (MX98/M0#d MX98/M0 d X 0 6.3905 3.2850)
*|I (MX74/M0#s MX74/M0 s X 0 8.1395 3.2850)
*|S (8 6.5300 3.2850)
*|S (8#2 6.5300 3.2850)
*|S (8#3 6.5300 3.0900)
*|S (8#5 8.0000 3.2850)
*|S (8#6 8.0000 3.0900)
*|S (8#7 8.0000 3.0900)
*|S (8#8 7.8850 3.0900)
*|S (8#9 6.6445 3.0900)
*|S (8#10 6.5300 3.0900)
CO1 MX74/M0#s VSS 2.23112e-18
CO2 8#10 VSS 5.92469e-18
CO3 8#8 VSS 1.26759e-18
CO4 8#3 VSS 2.19826e-18
CO5 8#6 VSS 5.06725e-18
CO6 8 VSS 4.29897e-18
CO7 8#3 MX73/M0#d 2.60133e-18
CO8 8#10 MX73/M0#d 2.05599e-18
CO9 8#3 20#22 2.15246e-17
CO10 8#6 MX73/M0#d 1.1851e-17
CO11 8 MX98/M0#g 5.30248e-18
CO12 8#8 MX73/M0#d 2.71401e-17
CO13 MX74/M0#s MX73/M0#d 1.09743e-17
CO14 8#3 MX98/M0#g 3.5541e-18
CO15 8#10 20#22 8.40305e-18
CO16 8#6 9#39 2.12356e-18
CO17 8#8 9 1.92142e-18