*
*|DSPF 1.5
*
*|DATE "Fri Feb 28 13:28:52 2025"
*|VENDOR "Cadence Design Systems"
*|PROGRAM "Cadence Quantus Extraction"
*|VERSION "22.1.0-p089 Linux 64 bit - (Thu Jan 19 11:47:08 PST 2023)"
*|DESIGN "DFFX1_LP"
*|DIVIDER /
*|DELIMITER #
*|DeviceFingerDelim "@"
*|BUSBIT []
*|GLOBAL_TEMPERATURE 25
*|OPERATING_TEMPERATURE 25
** QRC_TECH_DIR /vols/wfo_devel/projects/reference_SKY130/tech/sky130_release_0.0.4/quantus/extraction/typical 
** HIERARCHICAL_SPLIT_PINS_DELIMITER '%'
** caps2d version: 10
*
.SUBCKT  DFFX1_LP CK D Q QN VDD VSS
*
*Net Section
*
*|GROUND_NET VSS
*
*|NET VDD 2.15252e-15
*|P (VDD X 0 4.8250 4.1450)
*|I (MX71/M0#s MX71/M0 s X 0 3.4995 3.1950)
*|I (MX63/M0#s MX63/M0 s X 0 6.1695 3.1950)
*|I (MX60/M0#s MX60/M0 s X 0 2.2705 3.1950)
*|I (MX59/M0#s MX59/M0 s X 0 0.8295 3.1950)
*|I (MX49/M0#s MX49/M0 s X 0 7.2705 3.1550)
*|I (MX48/M0#s MX48/M0 s X 0 5.2195 3.1950)
*|I (MX47/M0#s MX47/M0 s X 0 2.5495 3.1950)
*|I (MX46/M0#s MX46/M0 s X 0 0.5505 3.1950)
*|I (MX45/M0#s MX45/M0 s X 0 7.5495 3.1550)
*|I (MM2#d MM2 d X 0 4.9405 3.1950)
*|S (VDD#1 7.5900 4.1400)
*|S (VDD#2 7.5900 4.1400)
*|S (VDD#4 7.4100 4.1400)
*|S (VDD#5 6.0300 4.1400)
*|S (VDD#6 5.0800 4.1400)
*|S (VDD#7 3.6800 4.1400)
*|S (VDD#9 3.3600 4.1400)
*|S (VDD#10 2.4100 4.1400)
*|S (VDD#11 0.6900 4.1400)
*|S (VDD#12 0.0000 4.1400)
*|S (VDD#14 7.4100 3.1550)
*|S (VDD#16 6.0300 3.1950)
*|S (VDD#18 5.0800 3.1950)
*|S (VDD#20 3.3600 3.1950)
*|S (VDD#22 2.4100 3.1950)
*|S (VDD#24 0.6900 3.1950)
*|S (VDD#25 7.5900 4.1400)
*|S (VDD#26 3.6800 4.1400)
CE1 MX48/M0#s VSS 1.75072e-18
CE2 MX49/M0#s VSS 1.69462e-18
CE3 MX59/M0#s VSS 1.39282e-18
CE4 MX60/M0#s VSS 3.48226e-18
CE5 MX71/M0#s VSS 1.67736e-18
CE6 VDD#26 VSS 5.52271e-18
CE7 VDD#25 VSS 3.80002e-18
CE8 VDD#11 VSS 5.06935e-18
CE9 VDD#10 VSS 5.67681e-18
CE10 VDD#9 VSS 1.5704e-18
CE11 VDD#6 VSS 6.99207e-19
CE12 VDD#5 VSS 2.04942e-18
CE13 VDD#12 VSS 1.90573e-18
CE14 VDD#7 VSS 3.01792e-18
CE15 VDD VSS 5.83596e-18
CE16 MX71/M0#s 34 2.53809e-18
CE17 VDD#6 34 6.91908e-18
CE18 VDD 34 7.01917e-18
CE19 MX48/M0#s 34 3.46704e-17
CE20 VDD#26 34 8.14628e-18
CE21 VDD#26 32 3.93053e-18
CE22 VDD 32 3.21873e-18
CE23 VDD#11 28 6.91908e-18
CE24 VDD 28 5.32776e-18
CE25 MX59/M0#s 28 2.7822e-17
CE26 VDD#10 32 6.89953e-18
CE27 VDD#26 28 7.72663e-18
CE28 MX60/M0#s 32 3.00397e-17
CE29 VDD#26 7#12 5.2455e-18
CE30 VDD#25 7 4.29668e-18
CE31 VDD#4 7 3.89698e-18
CE32 MX63/M0#s 7#18 9.72601e-18
CE33 MX49/M0#s 7#16 6.60904e-18
CE34 VDD#5 7#12 5.87846e-18
CE35 MX63/M0#s 7#12 2.73864e-17
CE36 VDD 7#12 2.30323e-17
CE37 VDD 7#18 1.5072e-17
CE38 VDD 7 1.2837e-17
CE39 VDD#5 7#18 5.89444e-18
CE40 VDD#26 7#18 2.12281e-17
CE41 MX49/M0#s 7 1.02568e-17
CE42 VDD#26 6#32 5.6146e-18
CE43 VDD#4 MX49/M0#g 5.21917e-18
CE44 VDD#25 MX49/M0#g 5.21596e-18
CE45 VDD#26 MX63/M0#g 4.96661e-18
CE46 VDD#26 6 4.96661e-18
CE47 VDD#6 6 3.87142e-18
CE48 VDD#5 MX63/M0#g 3.87142e-18
CE49 VDD#26 6#37 3.70229e-18
CE50 VDD#26 6#38 3.25591e-18
CE51 VDD#6 6#32 2.7733e-18
CE52 VDD#6 6#40 2.5273e-18
CE53 MX63/M0#s MX63/M0#g 9.54714e-18
CE54 MX48/M0#s 6 7.72091e-18
CE55 MX48/M0#s 6#32 2.63887e-17
CE56 MX48/M0#s 6#40 8.77578e-18
CE57 MX63/M0#s 6#32 2.25347e-17
CE58 VDD MX49/M0#g 1.32667e-17
CE59 MX63/M0#s 6#37 8.1612e-18
CE60 VDD 6 1.15921e-17
CE61 MX63/M0#s 6#40 8.19389e-18
CE62 VDD 6#41 6.46351e-18
CE63 VDD 6#32 1.23201e-17
CE64 VDD 6#40 1.04474e-17
CE65 VDD#26 6#40 1.73408e-17
CE66 MX49/M0#s MX49/M0#g 9.23577e-18
CE67 VDD MX63/M0#g 1.20006e-17
CE68 VDD#26 5#13 5.32891e-18
CE69 VDD#26 5 4.96661e-18
CE70 VDD#7 5#13 4.80188e-18
CE71 VDD#6 5 3.87142e-18
CE72 VDD 5#20 3.51341e-18
CE73 VDD#26 5#18 2.94451e-18
CE74 VDD#26 5#17 2.81759e-18
CE75 VDD#7 5#19 2.5366e-18
CE76 MX63/M0#s 5 2.43098e-18
CE77 VDD 5#18 1.86317e-17
CE78 VDD#26 5#19 1.38546e-17
CE79 VDD 5 1.15921e-17
CE80 MX48/M0#s 5#17 9.12359e-18
CE81 MX48/M0#s 5 8.17266e-18
CE82 VDD 5#17 1.86551e-17
CE83 VDD#26 4#12 5.32891e-18
CE84 VDD#7 4#12 4.80188e-18
CE85 MX71/M0#s 4#18 3.76801e-18
CE86 VDD#10 4 3.36646e-18
CE87 VDD 4#19 3.07374e-18
CE88 MX60/M0#s 4 7.72091e-18
CE89 VDD#26 4#18 1.38546e-17
CE90 MX71/M0#s 4#12 2.39324e-17
CE91 VDD 4 1.35216e-17
CE92 MX60/M0#s 3#36 7.13745e-18
CE93 VDD#26 3#32 6.4883e-18
CE94 VDD#26 MX57/M0#g 4.96661e-18
CE95 VDD#26 3 4.96661e-18
CE96 VDD#11 3 4.50865e-18
CE97 VDD#26 3#34 4.21959e-18
CE98 MX71/M0#s 3#36 4.15212e-18
CE99 VDD#26 3#33 3.62107e-18
CE100 VDD#10 3#25 2.811e-18
CE101 VDD#6 MX57/M0#g 2.7653e-18
CE102 VDD 3#36 2.70156e-18
CE103 VDD#9 3#25 2.07759e-18
CE104 VDD#7 3#32 1.88128e-18
CE105 VDD#26 3#25 1.79006e-18
CE106 VDD#7 MX57/M0#g 1.72832e-18
CE107 MX48/M0#s MX57/M0#g 1.63687e-18
CE108 MX60/M0#s 3#33 2.82162e-17
CE109 MX71/M0#s 3#25 1.97494e-17
CE110 MX71/M0#s 3#33 2.33575e-17
CE111 VDD 3#34 3.20714e-17
CE112 VDD 3#32 2.3423e-17
CE113 VDD 3 1.58806e-17
CE114 VDD 3#37 2.38551e-17
CE115 VDD MX57/M0#g 1.57991e-17
CE116 MX60/M0#s 3#25 2.53178e-17
CE117 VDD 3#33 2.99416e-17
CE118 VDD 2#17 9.12777e-18
CE119 MX71/M0#s 2 8.95937e-18
CE120 VDD#11 2#18 7.96345e-18
CE121 VDD#26 2 4.96661e-18
CE122 MX59/M0#s 2#18 4.26229e-18
CE123 VDD#7 2 3.35143e-18
CE124 MX48/M0#s 2#19 2.49129e-18
CE125 VDD#6 2#19 2.32771e-18
CE126 VDD#9 2#19 1.77998e-17
CE127 VDD#26 2#18 1.46202e-16
CE128 MX60/M0#s 2#18 3.25576e-17
CE129 VDD#10 2#18 2.94319e-17
CE130 VDD 2 1.37596e-17
CE131 VDD 2#19 2.78232e-17
CE132 VDD 2#18 1.5287e-17
CE133 MX71/M0#s 2#19 3.27409e-17
CE134 VDD#26 2#19 6.09909e-17
CE135 MX59/M0#s 1#44 5.90017e-18
CE136 VDD#26 1#36 5.75677e-18
CE137 VDD#26 MM1#g 4.96661e-18
CE138 VDD#7 MM1#g 4.50865e-18
CE139 VDD#10 1 4.50865e-18
CE140 VDD#26 1#43 3.84737e-18
CE141 VDD#12 1#36 3.69232e-18
CE142 VDD#10 MX47/M0#g 3.36646e-18
CE143 MX71/M0#s MX47/M0#g 2.07367e-18
CE144 VDD 1#45 2.7272e-17
CE145 VDD 1#44 3.0805e-17
CE146 VDD MM1#g 1.58259e-17
CE147 MX59/M0#s 1#36 2.58274e-17
CE148 VDD#26 1#44 1.38546e-17
CE149 VDD MX47/M0#g 1.35216e-17
CE150 VDD 1#36 8.35827e-18
CE151 VDD 1 1.33617e-17
CE152 MX60/M0#s MX47/M0#g 8.17266e-18
RfE33 VDD#1 VDD#4 8.940811 $L=0.18 $W=0.25
RfE34 VDD#4 VDD#5 70.105621 $L=1.38 $W=0.25
RfE35 VDD#5 VDD#6 48.089619 $L=0.95 $W=0.25
RfE36 VDD#6 VDD#7 71.404816 $L=1.4 $W=0.25
RfE37 VDD#7 VDD#9 16.108810 $L=0.32 $W=0.25
RfE38 VDD#9 VDD#10 48.089619 $L=0.95 $W=0.25
RfE39 VDD#10 VDD#11 87.513618 $L=1.72 $W=0.25
RfE40 VDD#11 VDD#12 35.052811 $L=0.69 $W=0.25
RfE41 VDD#4 VDD#14 67.556854 $L=0.985 $W=0.17
RfE42 VDD#5 VDD#16 64.545090 $L=0.945 $W=0.17
RfE43 VDD#6 VDD#18 64.545090 $L=0.945 $W=0.17
RfE44 VDD#9 VDD#20 64.545090 $L=0.945 $W=0.17
RfE45 VDD#10 VDD#22 64.545090 $L=0.945 $W=0.17
RfE46 VDD#11 VDD#24 64.545090 $L=0.945 $W=0.17
ReE47 VDD#25 VDD 0.864063 $L=2.765 $W=0.4
ReE48 VDD VDD#26 0.357812 $L=1.145 $W=0.4
Rh_1_E49 VDD#2 VDD#1 7.500000 $A=0.0578
Rh_1_E50 VDD#2 VDD#7 1.000000 $A=0.4335
Rh_2_E51 MX49/M0#s VDD#14 15.000000 $A=0.0289
Rh_2_E52 MX63/M0#s VDD#16 15.000000 $A=0.0289
Rh_2_E53 MX48/M0#s VDD#18 15.000000 $A=0.0289
Rh_2_E54 MX71/M0#s VDD#20 15.000000 $A=0.0289
Rh_2_E55 MX60/M0#s VDD#22 15.000000 $A=0.0289
Rh_2_E56 MX59/M0#s VDD#24 15.000000 $A=0.0289
RjE57 VDD#1 VDD#25 76.000000 $A=0.0578
RjE58 VDD#7 VDD#26 10.133333 $A=0.4335
RmwE59 MX47/M0#s MX60/M0#s 0.001000 $W=1000000
RmwE60 MX46/M0#s MX59/M0#s 0.001000 $W=1000000
RmwE61 MX45/M0#s MX49/M0#s 0.001000 $W=1000000
RmwE62 MM2#d MX48/M0#s 0.001000 $W=1000000
*
*|NET 3 1.88281e-15
*|I (MX70/M0#g MX70/M0 g X 0 4.0050 0.8000)
*|I (MX67/M0#g MX67/M0 g X 0 1.7650 0.8000)
*|I (MX55/M0#d MX55/M0 d X 0 2.7005 0.8000)
*|I (MX62/M0#g MX62/M0 g X 0 1.3350 3.1950)
*|I (MX57/M0#g MX57/M0 g X 0 4.4350 3.1950)
*|I (MX47/M0#d MX47/M0 d X 0 2.7005 3.1950)
*|S (3 1.3350 3.1950)
*|S (3#15 1.3350 2.6745)
*|S (3#16 1.3350 2.5100)
*|S (3#17 1.7550 1.1250)
*|S (3#18 1.7550 1.2900)
*|S (3#19 4.0050 1.1250)
*|S (3#20 4.0050 1.2900)
*|S (3#21 4.4350 2.8145)
*|S (3#22 4.4350 2.6500)
*|S (3#24 2.8400 3.1950)
*|S (3#25 2.8400 3.0900)
*|S (3#26 2.8400 0.9300)
*|S (3#28 2.8400 0.8000)
*|S (3#29 4.0050 1.2900)
*|S (3#30 2.8400 1.2900)
*|S (3#31 1.7550 1.2900)
*|S (3#32 4.4350 2.6500)
*|S (3#33 2.8400 2.6500)
*|S (3#34 1.4195 2.6500)
*|S (3#35 1.3350 2.5100)
*|S (3#36 2.8400 3.0900)
*|S (3#37 2.8400 2.6500)
*|S (3#38 2.8400 1.2900)
*|S (3#39 2.8400 0.9300)
CI1 MX57/M0#g VSS 6.89445e-18
CI2 MX55/M0#d VSS 4.52683e-18
CI3 MX67/M0#g VSS 1.34501e-17
CI4 MX70/M0#g VSS 2.14866e-17
CI5 3#39 VSS 5.19026e-18
CI6 3#38 VSS 1.61319e-17
CI7 3#37 VSS 1.13898e-18
CI8 3#36 VSS 1.31828e-18
CI9 3#34 VSS 6.11166e-18
CI10 3#32 VSS 4.8282e-18
CI11 3#31 VSS 1.9671e-17
CI12 3#29 VSS 1.88042e-17
CI13 3#30 VSS 1.88801e-17
CI14 3#33 VSS 5.73947e-18
CI15 3#25 VSS 2.0004e-18
CI16 3 VSS 1.07959e-17
CI17 3#32 34 1.412e-17
CI18 MX57/M0#g 34 7.72091e-18
CI19 3#34 32 1.93646e-17
CI20 3#31 30 2.48517e-17
CI21 MX67/M0#g 30 6.21746e-18
CI22 3#39 30 1.62544e-18
CI23 3 32 1.59285e-18
CI24 3#36 32 1.8083e-18
CI25 3#32 6#40 4.90084e-18
CI26 3#29 6#42 3.62161e-18
CI27 3#29 MX70/M0#d 1.20501e-17
CI28 3#32 5#19 1.4162e-17
CI29 MX57/M0#g 5#13 6.79664e-18
CI30 3#32 5#13 2.14552e-17
CI31 3#29 5#21 1.65663e-17
CI32 3#32 5#20 1.36952e-17
CI33 3#32 5#18 5.52521e-17
CI34 MX70/M0#g MX70/M0#d 6.2356e-18
CI35 MX70/M0#g MX70/M0#s 6.2356e-18
CI36 3#25 4 1.43725e-18
CI37 3#29 4#19 1.19787e-17
CI38 3#31 4#17 2.76114e-17
CI39 3#29 MX70/M0#s 2.13458e-17
CI40 3#30 4#17 5.62374e-17
CI41 3#30 4#16 3.13679e-17
CI42 3#32 4#12 2.14552e-17
CI43 3#33 4 7.71739e-18
CI44 3#38 4#17 2.58194e-17
CI45 3#29 4#20 9.79234e-18
CI46 3#32 4#18 2.66336e-17
CI47 3#31 MX51/M0#g 9.17078e-18
CI48 3#29 4#16 4.79905e-17
CI49 3#29 MX66/M0#s 8.32834e-18
CI50 3#39 MX55/M0#s 5.92336e-18
CI51 3#29 VSS#26 5.13212e-18
CI52 MX67/M0#g VSS#10 4.87612e-18
CI53 MX70/M0#g VSS#7 4.87612e-18
CI54 MX70/M0#g VSS#26 4.8201e-18
CI55 MX55/M0#d VSS#26 3.68464e-18
CI56 MX55/M0#d VSS#10 3.43086e-18
CI57 3#39 MX66/M0#s 3.41479e-18
CI58 3#31 VSS#10 2.81096e-18
CI59 3#29 VSS#7 2.80283e-18
CI60 MX67/M0#g VSS#26 2.27992e-18
CI61 3#30 VSS#9 1.87191e-18
CI62 MX70/M0#g MX66/M0#s 1.48899e-18
CI63 MX55/M0#d MX66/M0#s 1.44632e-17
CI64 3#30 MX55/M0#s 2.14433e-17
CI65 3#30 MX66/M0#s 1.49382e-17
CI66 MX55/M0#d MX55/M0#s 1.9059e-17
RgI141 3 3#15 167.137955 $L=0.52 $W=0.15
RgI142 3#15 3#16 34.134449 $L=0.1645 $W=0.27
RgI143 MX67/M0#g 3#17 104.477959 $L=0.325 $W=0.15
RgI144 3#17 3#18 34.134449 $L=0.1645 $W=0.27
RgI145 MX70/M0#g 3#19 104.477959 $L=0.325 $W=0.15
RgI146 3#19 3#20 34.134449 $L=0.1645 $W=0.27
RgI147 MX57/M0#g 3#21 122.151299 $L=0.38 $W=0.15
RgI148 3#21 3#22 34.134449 $L=0.1645 $W=0.27
RfI149 3#24 3#25 7.905882 $L=0.105 $W=0.17
RfI150 3#26 3#28 9.788236 $L=0.13 $W=0.17
RfI151 3#29 3#30 87.717644 $L=1.165 $W=0.17
RfI152 3#30 3#31 81.694115 $L=1.085 $W=0.17
RfI153 3#32 3#33 120.094116 $L=1.595 $W=0.17
RfI154 3#33 3#34 106.925850 $L=1.42 $W=0.17
RfI155 3#34 3#35 4.588319 $L=0.0845 $W=0.39
ReI156 3#36 3#37 0.239130 $L=0.44 $W=0.23
ReI157 3#37 3#38 0.739130 $L=1.36 $W=0.23
ReI158 3#38 3#39 0.195652 $L=0.36 $W=0.23
RhI159 MX55/M0#d 3#28 15.000000 $A=0.0289
Rh_2_I160 MX47/M0#d 3#24 15.000000 $A=0.0289
RjI161 3#25 3#36 152.000000 $A=0.0289
RjI162 3#33 3#37 152.000000 $A=0.0289
RjI163 3#30 3#38 152.000000 $A=0.0289
RjI164 3#26 3#39 152.000000 $A=0.0289
RiI165 3#20 3#29 15.000000 $A=0.0289
RiI166 3#18 3#31 15.000000 $A=0.0289
RiI167 3#22 3#32 15.000000 $A=0.0289
RiI168 3#16 3#35 15.000000 $A=0.0289
RmwI169 MX62/M0#g 3 0.001000 $W=1000000
*
*|NET 5 1.08916e-15
*|I (MX70/M0#d MX70/M0 d X 0 4.0805 0.8000)
*|I (MX58/M0#d MX58/M0 d X 0 4.3595 0.8000)
*|I (MX52/M0#g MX52/M0 g X 0 5.2950 0.8000)
*|I (MX57/M0#d MX57/M0 d X 0 4.3595 3.1950)
*|I (MX48/M0#g MX48/M0 g X 0 5.2950 3.1950)
*|I (MM1#d MM1 d X 0 4.0805 3.1950)
*|S (5 5.2950 3.1950)
*|S (5#8 5.3550 2.4745)
*|S (5#9 5.3550 2.3100)
*|S (5#10 5.3550 2.1450)
*|S (5#12 4.2200 3.1950)
*|S (5#13 4.2200 3.0900)
*|S (5#14 4.2200 0.8500)
*|S (5#16 4.2200 0.8000)
*|S (5#17 5.3550 2.3100)
*|S (5#18 4.2200 2.3100)
*|S (5#19 4.2200 3.0900)
*|S (5#20 4.2200 2.3100)
*|S (5#21 4.2200 0.8500)
CK1 MX52/M0#g VSS 1.57512e-17
CK2 MX70/M0#d VSS 6.91187e-18
CK3 5#21 VSS 1.075e-17
CK4 5#20 VSS 6.62196e-18
CK5 5#19 VSS 6.84884e-18
CK6 5#17 VSS 5.41654e-18
CK7 5#18 VSS 8.06447e-18
CK8 5#13 VSS 5.64779e-19
CK9 5 VSS 2.37049e-18
CK10 5#19 34 7.23448e-18
CK11 5#18 38 3.16822e-18
CK12 5 34 1.75348e-18
CK13 5#18 34 7.19409e-18
CK14 MX52/M0#g 38 1.1975e-18
CK15 5#13 34 2.64474e-17
CK16 MX70/M0#d 38 2.21438e-17
CK17 5#21 38 7.03551e-18
CK18 MX52/M0#g 6#38 5.00321e-18
CK19 5#20 6#39 4.60195e-18
CK20 5#21 6#41 4.25473e-18
CK21 5 6#40 2.27824e-18
CK22 5#19 6#32 1.80816e-18
CK23 MX52/M0#g 6#42 1.72958e-18
CK24 5#13 6 1.43725e-18
CK25 5#21 MX52/M0#d 1.33203e-18
CK26 5#19 6#40 1.30227e-17
CK27 5#21 6#42 1.63364e-17
CK28 5#17 6#38 3.37399e-17
CK29 5#17 6#41 1.61592e-17
CK30 5#17 6#32 1.37036e-17
CK31 5#17 6#40 1.07289e-17
CK32 5#17 6 5.80078e-18
CK33 5#20 6#41 1.39617e-17
CK34 5#18 6#39 1.54363e-17
CK35 5 6#32 8.86262e-18
CK36 5#20 6#40 6.57336e-18
CK37 5#17 6#39 3.55965e-17
CK38 MX52/M0#g MX52/M0#d 7.14046e-18
CK39 5#21 VSS#7 4.99237e-18
CK40 MX52/M0#g VSS#26 4.8201e-18
CK41 MX52/M0#g MX64/M0#s 2.26146e-18
CK42 5#21 VSS#26 2.07771e-17
CK43 MX70/M0#d VSS#26 5.66554e-18
CK44 MX52/M0#g MX61/M0#s 7.57466e-18
CK45 MX52/M0#g VSS#6 5.74683e-18
CK46 MX70/M0#d VSS#7 7.24683e-18
RgK187 5 5#8 231.404633 $L=0.72 $W=0.15
RgK188 5#8 5#9 38.857975 $L=0.1645 $W=0.27
RgK189 5#9 5#10 29.410927 $L=0.1645 $W=0.27
RgK190 5#10 MX52/M0#g 432.237946 $L=1.345 $W=0.15
RfK191 5#12 5#13 7.905882 $L=0.105 $W=0.17
RfK192 5#14 5#16 3.764706 $L=0.05 $W=0.17
RfK193 5#17 5#18 85.458824 $L=1.135 $W=0.17
ReK194 5#19 5#20 0.423913 $L=0.78 $W=0.23
ReK195 5#20 5#21 0.793478 $L=1.46 $W=0.23
RhK196 MX70/M0#d 5#16 15.000000 $A=0.0289
Rh_2_K197 MX57/M0#d 5#12 15.000000 $A=0.0289
RjK198 5#13 5#19 152.000000 $A=0.0289
RjK199 5#18 5#20 152.000000 $A=0.0289
RjK200 5#14 5#21 152.000000 $A=0.0289
RiK201 5#9 5#17 15.000000 $A=0.0289
RmwK202 MX58/M0#d MX70/M0#d 0.001000 $W=1000000
RmwK203 MX48/M0#g 5 0.001000 $W=1000000
RmwK204 MM1#d MX57/M0#d 0.001000 $W=1000000
*
*|NET 1 1.46557e-15
*|I (MX65/M0#g MX65/M0 g X 0 1.3350 0.8000)
*|I (MX58/M0#g MX58/M0 g X 0 4.4350 0.8000)
*|I (MX55/M0#g MX55/M0 g X 0 2.6250 0.8000)
*|I (MX54/M0#d MX54/M0 d X 0 0.3995 0.8000)
*|I (MX47/M0#g MX47/M0 g X 0 2.6250 3.1950)
*|I (MX46/M0#d MX46/M0 d X 0 0.3995 3.1950)
*|I (MM0#g MM0 g X 0 1.7650 3.1950)
*|I (MM1#g MM1 g X 0 4.0050 3.1950)
*|S (1 1.7650 3.1950)
*|S (1#22 1.7650 1.9700)
*|S (1#23 1.5500 1.9700)
*|S (1#24 1.3350 1.9700)
*|S (1#25 2.6400 2.8295)
*|S (1#26 2.6400 2.6800)
*|S (1#27 2.7150 1.9700)
*|S (1#28 2.7150 1.8050)
*|S (1#29 2.6400 1.2595)
*|S (1#30 2.6400 1.1100)
*|S (1#31 4.4350 1.9700)
*|S (1#32 4.2200 1.9700)
*|S (1#33 4.0050 1.9700)
*|S (1#35 0.2600 3.1950)
*|S (1#36 0.2600 3.0900)
*|S (1#37 0.2600 0.8500)
*|S (1#39 0.2600 0.8000)
*|S (1#40 4.2200 1.9700)
*|S (1#41 2.7150 1.9700)
*|S (1#42 1.5500 1.9700)
*|S (1#43 0.2600 1.9700)
*|S (1#44 0.2600 3.0900)
*|S (1#45 0.2600 1.9700)
*|S (1#46 0.2600 0.8500)
CG1 MM1#g VSS 6.94079e-18
CG2 MX47/M0#g VSS 3.42078e-18
CG3 MX54/M0#d VSS 1.13676e-17
CG4 MX55/M0#g VSS 1.20897e-17
CG5 MX58/M0#g VSS 2.38651e-17
CG6 MX65/M0#g VSS 2.03329e-17
CG7 1#46 VSS 3.48631e-17
CG8 1#45 VSS 2.50094e-17
CG9 1#44 VSS 3.43661e-18
CG10 1#42 VSS 4.0671e-17
CG11 1#41 VSS 2.54096e-17
CG12 1#40 VSS 2.0985e-17
CG13 1#43 VSS 2.94886e-17
CG14 1#36 VSS 5.46206e-19
CG15 1 VSS 1.21064e-17
CG16 MX65/M0#g 26 6.21439e-18
CG17 1#42 26 4.52746e-18
CG18 1#46 26 1.37962e-18
CG19 1#40 6#39 9.99735e-18
CG20 MX58/M0#g 5#18 2.47456e-18
CG21 1#40 MX70/M0#d 1.95242e-18
CG22 1#40 5#18 3.67017e-17
CG23 MX58/M0#g MX70/M0#d 6.2356e-18
CG24 1#40 5#20 2.80578e-17
CG25 MM1#g 5#13 6.79664e-18
CG26 MM1#g 4#12 6.79664e-18
CG27 1#41 4 2.19075e-18
CG28 MX58/M0#g MX70/M0#s 1.28937e-18
CG29 MX55/M0#g 4#17 1.25386e-18
CG30 1#40 4#16 4.41559e-17
CG31 1#41 4#16 3.52813e-17
CG32 1#41 4#17 7.00056e-17
CG33 1#40 4#19 2.30092e-17
CG34 1#42 4#17 1.32622e-17
CG35 MX55/M0#g MX55/M0#d 7.13734e-18
CG36 MX55/M0#g 3#30 6.84752e-18
CG37 1#40 3#29 6.26851e-18
CG38 1#40 3#33 4.43477e-18
CG39 1#42 MX67/M0#g 2.90905e-18
CG40 1#40 MX70/M0#g 2.22308e-18
CG41 MX47/M0#g 3#36 1.62909e-18
CG42 1#42 3 1.55463e-18
CG43 MX55/M0#g 3#39 1.32525e-18
CG44 1#42 3#34 3.42762e-17
CG45 1#41 3#38 1.42148e-17
CG46 1#41 3#33 1.88556e-17
CG47 1#42 3#31 1.44819e-17
CG48 1 3#34 1.03358e-17
CG49 MM1#g 3#32 1.03358e-17
CG50 MX47/M0#g 3#33 7.71739e-18
CG51 MX47/M0#g 3#25 7.80226e-18
CG52 1#40 3#32 7.95654e-18
CG53 1#41 3#37 2.35002e-17
CG54 1 2#12 6.80836e-18
CG55 1#42 2#20 6.71718e-18
CG56 MX65/M0#g MX67/M0#d 6.23699e-18
CG57 1#40 2#17 6.21801e-18
CG58 1 2#18 5.24584e-18
CG59 MX47/M0#g 2#18 5.20777e-18
CG60 1#42 MX67/M0#d 4.36546e-18
CG61 1#42 2#18 4.34244e-18
CG62 1#40 2 3.0971e-18
CG63 1#41 2#18 2.71227e-18
CG64 1#41 2#20 2.45567e-18
CG65 1#41 2#17 3.03967e-17
CG66 1#41 2#19 1.97074e-17
CG67 1#46 MX54/M0#s 5.95386e-18
CG68 MX65/M0#g VSS#11 5.74683e-18
CG69 MX54/M0#d VSS#26 5.64727e-18
CG70 MX58/M0#g VSS#26 4.8201e-18
CG71 MX65/M0#g VSS#26 4.8201e-18
CG72 MX54/M0#d VSS#12 4.62862e-18
CG73 1#43 VSS#26 4.49278e-18
CG74 MX55/M0#g VSS#10 3.64084e-18
CG75 MX58/M0#g VSS#6 3.52472e-18
CG76 1#46 VSS#12 3.18629e-18
CG77 1#42 VSS#26 3.15008e-18
CG78 MX55/M0#g VSS#26 2.27992e-18
CG79 MX58/M0#g VSS#7 2.20295e-18
CG80 1#46 VSS#11 2.17915e-18
CG81 MX55/M0#g MX66/M0#s 1.92194e-18
CG82 MX55/M0#g MX55/M0#s 7.54782e-18
CG83 1#46 VSS#26 2.07771e-17
CG84 MX54/M0#d MX54/M0#s 2.0017e-17
RgG93 1 1#22 365.200073 $L=1.225 $W=0.15
RgG94 1#22 1#23 39.939335 $L=0.215 $W=0.27
RgG95 1#23 1#24 39.939335 $L=0.215 $W=0.27
RgG96 1#24 MX65/M0#g 347.526733 $L=1.17 $W=0.15
RgG97 MX47/M0#g 1#25 117.353607 $L=0.365 $W=0.15
RgG98 1#25 1#26 41.266922 $L=0.149 $W=0.18
RgG99 1#26 1#27 214.096222 $L=0.71 $W=0.15
RgG100 1#27 1#28 38.857975 $L=0.1645 $W=0.27
RgG101 1#28 1#29 175.238251 $L=0.545 $W=0.15
RgG102 1#29 1#30 41.266922 $L=0.149 $W=0.18
RgG103 1#30 MX55/M0#g 167.276825 $L=0.31 $W=0.15
RgG104 MX58/M0#g 1#31 347.526733 $L=1.17 $W=0.15
RgG105 1#31 1#32 39.939335 $L=0.215 $W=0.27
RgG106 1#32 1#33 39.939335 $L=0.215 $W=0.27
RgG107 1#33 MM1#g 365.200073 $L=1.225 $W=0.15
RfG108 1#35 1#36 7.905882 $L=0.105 $W=0.17
RfG109 1#37 1#39 3.764706 $L=0.05 $W=0.17
RfG110 1#40 1#41 113.317642 $L=1.505 $W=0.17
RfG111 1#41 1#42 87.717644 $L=1.165 $W=0.17
RfG112 1#42 1#43 97.129410 $L=1.29 $W=0.17
ReG113 1#44 1#45 0.608696 $L=1.12 $W=0.23
ReG114 1#45 1#46 0.608696 $L=1.12 $W=0.23
RhG115 MX54/M0#d 1#39 15.000000 $A=0.0289
Rh_2_G116 MX46/M0#d 1#35 15.000000 $A=0.0289
RjG117 1#36 1#44 152.000000 $A=0.0289
RjG118 1#43 1#45 152.000000 $A=0.0289
RjG119 1#37 1#46 152.000000 $A=0.0289
RiG120 1#32 1#40 15.000000 $A=0.0289
RiG121 1#27 1#41 15.000000 $A=0.0289
RiG122 1#23 1#42 15.000000 $A=0.0289
RmwG123 MM0#g 1 0.001000 $W=1000000
*
*|NET 4 1.35989e-15
*|I (MX70/M0#s MX70/M0 s X 0 3.9295 0.8000)
*|I (MX66/M0#d MX66/M0 d X 0 3.6505 0.8000)
*|I (MX51/M0#g MX51/M0 g X 0 2.1950 0.8000)
*|I (MX71/M0#d MX71/M0 d X 0 3.6505 3.1950)
*|I (MX60/M0#g MX60/M0 g X 0 2.1950 3.1950)
*|I (MM1#s MM1 s X 0 3.9295 3.1950)
*|S (4 2.1950 3.1950)
*|S (4#8 2.2350 1.6300)
*|S (4#9 2.2350 1.4650)
*|S (4#11 3.7900 3.1950)
*|S (4#12 3.7900 3.0900)
*|S (4#13 3.7900 0.8500)
*|S (4#15 3.7900 0.8000)
*|S (4#16 3.7900 1.6300)
*|S (4#17 2.2350 1.6300)
*|S (4#18 3.7900 3.0900)
*|S (4#19 3.7900 1.6300)
*|S (4#20 3.7900 0.8500)
CJ1 MX51/M0#g VSS 2.3804e-17
CJ2 MX70/M0#s VSS 1.62074e-18
CJ3 4#20 VSS 3.4983e-18
CJ4 4#19 VSS 1.31329e-18
CJ5 4#18 VSS 1.03254e-17
CJ6 4#17 VSS 3.44857e-17
CJ7 4#16 VSS 2.38835e-17
CJ8 4#12 VSS 2.26791e-18
CJ9 4 VSS 1.02176e-17
CJ10 4#19 5#18 4.94997e-18
CJ11 MX70/M0#s 5#21 3.99586e-18
CJ12 4#12 5#19 3.94969e-18
CJ13 4#20 MX70/M0#d 3.31626e-18
CJ14 4#18 5#13 3.29335e-18
CJ15 4#16 5#21 3.02018e-18
CJ16 MX70/M0#s MX70/M0#d 1.7993e-17
CJ17 4#19 5#20 7.65846e-17
CJ18 4#16 5#20 5.86778e-18
CJ19 4#19 5#21 3.38265e-17
CJ20 4#12 5#13 2.31756e-17
CJ21 4#18 5#19 5.50367e-17
CJ22 4#18 5#20 3.38255e-17
CJ23 4#20 5#21 5.38082e-17
CJ24 MX70/M0#s VSS#7 6.01954e-18
CJ25 MX70/M0#s VSS#26 5.3592e-18
CJ26 MX51/M0#g VSS#10 4.87612e-18
CJ27 4#20 VSS#7 4.60773e-18
CJ28 4#20 MX66/M0#s 3.79099e-18
CJ29 MX70/M0#s MX66/M0#s 1.87971e-17
CJ30 MX51/M0#g MX55/M0#s 7.16322e-18
CJ31 4#20 VSS#26 1.74471e-17
RgJ170 4 4#8 479.322205 $L=1.565 $W=0.15
RgJ171 4#8 4#9 34.134449 $L=0.1645 $W=0.27
RgJ172 4#9 MX51/M0#g 213.731293 $L=0.665 $W=0.15
RfJ173 4#11 4#12 7.905882 $L=0.105 $W=0.17
RfJ174 4#13 4#15 3.764706 $L=0.05 $W=0.17
RfJ175 4#16 4#17 117.082352 $L=1.555 $W=0.17
ReJ176 4#18 4#19 0.793478 $L=1.46 $W=0.23
ReJ177 4#19 4#20 0.423913 $L=0.78 $W=0.23
RhJ178 MX70/M0#s 4#15 15.000000 $A=0.0289
Rh_2_J179 MX71/M0#d 4#11 15.000000 $A=0.0289
RjJ180 4#12 4#18 152.000000 $A=0.0289
RjJ181 4#16 4#19 152.000000 $A=0.0289
RjJ182 4#13 4#20 152.000000 $A=0.0289
RiJ183 4#8 4#17 15.000000 $A=0.0289
RmwJ184 MX66/M0#d MX70/M0#s 0.001000 $W=1000000
RmwJ185 MX60/M0#g 4 0.001000 $W=1000000
RmwJ186 MM1#s MX71/M0#d 0.001000 $W=1000000
*
*|NET QN 5.33573e-16
*|P (QN X 0 7.8350 2.0750)
*|I (MX56/M0#d MX56/M0 d X 0 7.7005 0.8000)
*|I (MX45/M0#d MX45/M0 d X 0 7.7005 3.1550)
*|S (QN#2 7.8400 3.1550)
*|S (QN#3 7.8400 2.9450)
*|S (QN#4 7.8400 1.0050)
*|S (QN#6 7.8400 0.8000)
*|S (QN#7 7.8400 1.0050)
*|S (QN#8 7.8400 2.9450)
CD1 MX56/M0#d VSS 6.61199e-18
CD2 QN#8 VSS 3.19257e-19
CD3 QN#7 VSS 4.65217e-17
CD4 QN#4 VSS 9.70994e-18
CD5 QN VSS 2.08433e-17
CD6 QN#3 7#16 2.84166e-18
CD7 MX56/M0#d MX56/M0#g 5.13559e-18
CD8 QN#4 MX56/M0#g 2.97297e-18
CD9 QN 7#16 2.14575e-17
CD10 QN#3 7 1.13869e-17
CD11 QN#4 7#16 9.5477e-18
CD12 QN#7 7#16 1.68132e-17
CD13 QN#3 MX49/M0#g 2.30855e-18
CD14 QN 6#36 8.88954e-18
CD15 MX56/M0#d VSS#4 6.05099e-18
CD16 MX56/M0#d VSS#25 5.36212e-18
CD17 QN#4 MX56/M0#s 5.68428e-18
CD18 QN#7 MX56/M0#s 8.60032e-18
CD19 QN#7 VSS#4 5.94752e-18
CD20 QN#7 VSS#25 2.33842e-17
CD21 MX56/M0#d MX56/M0#s 1.51107e-17
CD22 QN#3 MX49/M0#s 3.04736e-17
CD23 QN#8 VDD#25 2.29592e-17
CD24 QN#8 VDD#4 6.35089e-18
CD25 QN#3 VDD 1.56907e-17
CD26 QN VDD 1.63202e-17
CD27 QN#3 VDD#4 4.87723e-18
CD28 QN#8 VDD 5.12814e-17
CD29 QN#3 VDD#25 5.60542e-18
CD30 QN#8 MX49/M0#s 1.34184e-17
RfD25 QN#2 QN#3 15.811765 $L=0.21 $W=0.17
RfD26 QN#4 QN#6 15.435294 $L=0.205 $W=0.17
ReD27 QN QN#7 0.514423 $L=1.07 $W=0.26
ReD28 QN QN#8 0.415321 $L=0.87 $W=0.26
RhD29 MX56/M0#d QN#6 15.000000 $A=0.0289
Rh_2_D30 MX45/M0#d QN#2 15.000000 $A=0.0289
RjD31 QN#4 QN#7 152.000000 $A=0.0289
RjD32 QN#3 QN#8 76.000000 $A=0.0578
*
*|NET 2 2.02595e-15
*|I (MX67/M0#d MX67/M0 d X 0 1.6895 0.8000)
*|I (MX66/M0#g MX66/M0 g X 0 3.5750 0.8000)
*|I (MX65/M0#d MX65/M0 d X 0 1.4105 0.8000)
*|I (MX71/M0#g MX71/M0 g X 0 3.5750 3.1950)
*|I (MX62/M0#d MX62/M0 d X 0 1.4105 3.1950)
*|I (MM0#s MM0 s X 0 1.6895 3.1950)
*|S (2 3.5750 3.1950)
*|S (2#8 3.5750 2.3100)
*|S (2#9 3.4500 2.3100)
*|S (2#11 1.5500 3.1950)
*|S (2#12 1.5500 3.0900)
*|S (2#13 1.5500 0.8500)
*|S (2#15 1.5500 0.8000)
*|S (2#16 3.4500 2.3100)
*|S (2#17 3.3050 2.3100)
*|S (2#18 1.5500 3.0900)
*|S (2#19 3.3050 2.3100)
*|S (2#20 1.5500 0.8500)
CH1 MX66/M0#g VSS 2.14227e-17
CH2 MX67/M0#d VSS 9.29374e-18
CH3 2#20 VSS 2.28959e-17
CH4 2#19 VSS 3.41068e-17
CH5 2#18 VSS 3.96966e-18
CH6 2#12 VSS 5.82451e-18
CH7 2#17 VSS 2.49664e-19
CH8 2 VSS 5.03251e-18
CH9 2#20 30 2.34916e-17
CH10 2#18 28 1.18953e-17
CH11 2#12 32 2.35022e-17
CH12 MX67/M0#d 30 1.76094e-17
CH13 2#12 28 2.32657e-17
CH14 2#18 32 2.98858e-17
CH15 MX67/M0#d 26 1.74154e-17
CH16 2#20 26 7.51659e-18
CH17 2#17 5#18 3.58887e-18
CH18 2#19 5#13 1.71312e-18
CH19 2 5#13 1.47335e-18
CH20 MX66/M0#g MX70/M0#s 6.49954e-18
CH21 2#19 4#12 6.14188e-18
CH22 2#18 4 5.20777e-18
CH23 2#19 MX70/M0#s 5.09443e-18
CH24 2#17 4#19 4.20078e-18
CH25 2#20 4#17 3.1771e-18
CH26 2#17 4#18 2.13113e-18
CH27 MX66/M0#g 4#16 1.44211e-18
CH28 2#12 4 1.43725e-18
CH29 2#19 4#18 7.80838e-17
CH30 2#19 4#16 1.89042e-17
CH31 2#19 4#19 9.12858e-17
CH32 2#19 4#20 4.56455e-17
CH33 2 4#12 7.11199e-18
CH34 2#20 3#30 7.7303e-18
CH35 2#17 3#37 7.27434e-18
CH36 MX66/M0#g 3#29 6.84752e-18
CH37 2#12 3 6.80836e-18
CH38 MX67/M0#d MX67/M0#g 6.23699e-18
CH39 2#18 3#33 5.24449e-18
CH40 2 3#33 4.70279e-18
CH41 2#18 3#25 4.68198e-18
CH42 2#19 MX55/M0#d 4.09986e-18
CH43 2 3#32 2.98016e-18
CH44 2#18 3 2.03982e-18
CH45 2#20 MX67/M0#g 1.93396e-18
CH46 2#17 3#33 3.67017e-17
CH47 2#20 3#31 1.33725e-17
CH48 2#19 3#33 2.42623e-17
CH49 2#18 3#34 1.34739e-17
CH50 2#19 3#39 3.1742e-17
CH51 2#19 3#37 7.78912e-17
CH52 2#18 3#36 2.4276e-17
CH53 MX67/M0#d 3#31 1.45786e-17
CH54 2#20 MX55/M0#d 1.08957e-17
CH55 2#19 3#30 2.13294e-17
CH56 2#19 3#25 1.20946e-17
CH57 2#12 3#34 2.46494e-17
CH58 2#20 3#39 5.15026e-17
CH59 2#19 3#38 7.41818e-17
CH60 2#19 3#36 5.00035e-17
CH61 2#19 VSS#9 8.76909e-18
CH62 MX66/M0#g MX66/M0#s 8.30381e-18
CH63 2#20 MX54/M0#s 6.16218e-18
CH64 2#20 VSS#11 5.64125e-18
CH65 MX66/M0#g VSS#26 4.8201e-18
CH66 2#20 VSS#9 4.62364e-18
CH67 MX67/M0#d VSS#26 3.86941e-18
CH68 MX66/M0#g VSS#7 3.64084e-18
CH69 MX67/M0#d VSS#10 3.58206e-18
CH70 2#19 VSS#26 2.60364e-17
CH71 2#20 VSS#10 2.48554e-17
CH72 2#19 MX66/M0#s 3.03365e-17
CH73 2#20 VSS#26 1.86488e-16
CH74 2#20 MX55/M0#s 2.93318e-17
RgH124 2 2#8 279.395752 $L=0.885 $W=0.15
RgH125 2#8 2#9 7.376061 $L=0.125 $W=0.33
RgH126 2#8 MX66/M0#g 480.229095 $L=1.51 $W=0.15
RfH127 2#11 2#12 7.905882 $L=0.105 $W=0.17
RfH128 2#13 2#15 3.764706 $L=0.05 $W=0.17
RfH129 2#16 2#17 10.917647 $L=0.145 $W=0.17
ReH130 2#18 2#19 1.821748 $L=3.555 $W=0.23
ReH131 2#19 2#20 1.984791 $L=3.855 $W=0.23
RhH132 MX67/M0#d 2#15 15.000000 $A=0.0289
Rh_2_H133 MX62/M0#d 2#11 15.000000 $A=0.0289
RjH134 2#12 2#18 152.000000 $A=0.0289
RjH135 2#17 2#19 152.000000 $A=0.0289
RjH136 2#13 2#20 152.000000 $A=0.0289
RiH137 2#9 2#16 15.000000 $A=0.0068
RmwH138 MX65/M0#d MX67/M0#d 0.001000 $W=1000000
RmwH139 MX71/M0#g 2 0.001000 $W=1000000
RmwH140 MM0#s MX62/M0#d 0.001000 $W=1000000
*
*|NET 6 1.18323e-15
*|I (MX64/M0#g MX64/M0 g X 0 6.2450 0.8000)
*|I (MX61/M0#g MX61/M0 g X 0 4.8650 0.8000)
*|I (MX53/M0#g MX53/M0 g X 0 7.1950 0.8000)
*|I (MX52/M0#d MX52/M0 d X 0 5.3705 0.8000)
*|I (MX63/M0#g MX63/M0 g X 0 6.2450 3.1950)
*|I (MX49/M0#g MX49/M0 g X 0 7.1950 3.1550)
*|I (MX48/M0#d MX48/M0 d X 0 5.3705 3.1950)
*|I (MM2#g MM2 g X 0 4.8650 3.1950)
*|S (6 4.8650 3.1950)
*|S (6#22 4.8650 1.9700)
*|S (6#23 4.8650 1.8050)
*|S (6#24 6.1850 2.1345)
*|S (6#25 6.1850 1.9700)
*|S (6#26 6.1850 1.8050)
*|S (6#27 7.1950 2.1045)
*|S (6#28 7.1050 1.9700)
*|S (6#29 7.1950 1.8350)
*|S (6#31 5.5100 3.1950)
*|S (6#32 5.5100 2.9900)
*|S (6#33 5.5100 0.8900)
*|S (6#35 5.5100 0.8000)
*|S (6#36 7.1050 1.9700)
*|S (6#37 6.1850 1.9700)
*|S (6#38 5.5100 1.9700)
*|S (6#39 4.8650 1.9700)
*|S (6#40 5.5100 2.9900)
*|S (6#41 5.5100 1.9700)
*|S (6#42 5.5100 0.8900)
CL1 MX49/M0#g VSS 1.69139e-18
CL2 MX63/M0#g VSS 2.56335e-18
CL3 MX52/M0#d VSS 7.567e-18
CL4 MX53/M0#g VSS 1.67829e-17
CL5 MX61/M0#g VSS 1.52344e-17
CL6 MX64/M0#g VSS 1.59445e-17
CL7 6#42 VSS 6.79758e-18
CL8 6#41 VSS 1.27649e-17
CL9 6#40 VSS 9.27991e-19
CL10 6#39 VSS 1.45614e-17
CL11 6#37 VSS 2.08295e-17
CL12 6#36 VSS 2.44907e-17
CL13 6#38 VSS 2.46138e-17
CL14 6#32 VSS 5.90291e-18
CL15 6 VSS 1.41013e-18
CL16 6 34 7.72091e-18
CL17 6#42 38 1.3762e-18
CL18 6#40 34 2.35464e-18
CL19 MX61/M0#g 38 5.27282e-18
CL20 6#39 38 4.26186e-18
CL21 MX53/M0#g 7#16 5.29622e-18
CL22 MX64/M0#g MX64/M0#d 4.72555e-18
CL23 6#32 7#12 4.70343e-18
CL24 6#32 7#18 4.69475e-18
CL25 6#42 7#19 4.31749e-18
CL26 MX64/M0#g 7#17 4.08518e-18
CL27 MX49/M0#g 7#12 3.04821e-18
CL28 MX64/M0#g 7#13 2.71508e-18
CL29 MX63/M0#g 7#18 2.62953e-18
CL30 6#42 7#13 2.36303e-18
CL31 MX52/M0#d 7#20 2.35994e-18
CL32 MX64/M0#g 7#20 1.8619e-18
CL33 MX52/M0#d 7#13 1.47822e-18
CL34 6#36 7#17 3.34292e-17
CL35 6#41 7#18 1.03097e-17
CL36 6#37 7#12 1.13871e-17
CL37 6#37 7#17 3.27808e-17
CL38 MX63/M0#g 7#12 1.03726e-17
CL39 6#37 7#19 2.97895e-17
CL40 6#41 7#17 5.84208e-18
CL41 6#42 7#20 2.224e-17
CL42 6#41 7#19 1.94374e-17
CL43 6#40 7#12 6.6251e-18
CL44 6#36 7#16 2.2639e-17
CL45 6#40 7#18 3.36516e-17
CL46 MX52/M0#d VSS#26 5.86975e-18
CL47 6#38 VSS#26 5.32387e-18
CL48 6#39 MX61/M0#s 5.22439e-18
CL49 MX61/M0#g VSS#26 4.8201e-18
CL50 MX64/M0#g VSS#26 4.8201e-18
CL51 MX53/M0#g VSS#25 4.8201e-18
CL52 MX61/M0#g VSS#6 4.29097e-18
CL53 MX53/M0#g VSS#4 4.29097e-18
CL54 MX64/M0#g VSS#5 4.29097e-18
CL55 MX52/M0#d VSS#6 3.45274e-18
CL56 6#39 VSS#26 3.22338e-18
CL57 6#42 VSS#6 3.01006e-18
CL58 6#37 VSS#26 2.85992e-18
CL59 MX53/M0#g MX56/M0#s 7.56137e-18
CL60 MX61/M0#g MX61/M0#s 7.15597e-18
CL61 MX52/M0#d MX64/M0#s 1.71138e-17
CL62 MX64/M0#g MX64/M0#s 8.83305e-18
CL63 6#42 MX64/M0#s 6.36984e-18
CL64 6#42 VSS#26 1.96374e-17
CL65 6#37 MX64/M0#s 8.1612e-18
CL66 MX52/M0#d MX61/M0#s 2.37472e-17
CL67 6#42 MX61/M0#s 6.94319e-18
RgL205 6 6#22 374.792419 $L=1.225 $W=0.15
RgL206 6#22 6#23 34.134449 $L=0.1645 $W=0.27
RgL207 6#23 MX61/M0#g 322.984650 $L=1.005 $W=0.15
RgL208 MX63/M0#g 6#24 340.657959 $L=1.06 $W=0.15
RgL209 6#24 6#25 38.857975 $L=0.1645 $W=0.27
RgL210 6#25 6#26 29.410927 $L=0.1645 $W=0.27
RgL211 6#26 MX64/M0#g 322.984650 $L=1.005 $W=0.15
RgL212 MX49/M0#g 6#27 337.436523 $L=1.05 $W=0.15
RgL213 6#27 6#28 31.545456 $L=0.1345 $W=0.33
RgL214 6#28 6#29 31.545456 $L=0.1345 $W=0.33
RgL215 6#29 MX53/M0#g 332.616516 $L=1.035 $W=0.15
RfL216 6#31 6#32 15.435293 $L=0.205 $W=0.17
RfL217 6#33 6#35 6.776471 $L=0.09 $W=0.17
RfL218 6#36 6#37 69.270584 $L=0.92 $W=0.17
RfL219 6#37 6#38 50.823528 $L=0.675 $W=0.17
RfL220 6#38 6#39 48.564705 $L=0.645 $W=0.17
ReL221 6#40 6#41 0.554348 $L=1.02 $W=0.23
ReL222 6#41 6#42 0.586957 $L=1.08 $W=0.23
RhL223 MX52/M0#d 6#35 15.000000 $A=0.0289
Rh_2_L224 MX48/M0#d 6#31 15.000000 $A=0.0289
RjL225 6#32 6#40 76.000000 $A=0.0578
RjL226 6#38 6#41 152.000000 $A=0.0289
RjL227 6#33 6#42 152.000000 $A=0.0289
RiL228 6#28 6#36 15.000000 $A=0.0289
RiL229 6#25 6#37 15.000000 $A=0.0289
RiL230 6#22 6#39 15.000000 $A=0.0289
RmwL231 MM2#g 6 0.001000 $W=1000000
*
*|NET Q 8.16843e-16
*|P (Q X 0 6.9150 2.0000)
*|I (MX53/M0#d MX53/M0 d X 0 7.1195 0.8000)
*|I (MX49/M0#d MX49/M0 d X 0 7.1195 3.1550)
*|S (Q#2 6.9800 3.1550)
*|S (Q#3 6.9800 2.9450)
*|S (Q#4 6.9800 1.0050)
*|S (Q#6 6.9800 0.8000)
*|S (Q#7 6.9800 1.0050)
*|S (Q#8 6.9800 2.9450)
CC1 MX53/M0#d VSS 4.4467e-18
CC2 Q#8 VSS 2.431e-18