*
*|DSPF 1.5
*
*|DATE "Fri Feb 28 13:25:33 2025"
*|VENDOR "Cadence Design Systems"
*|PROGRAM "Cadence Quantus Extraction"
*|VERSION "22.1.0-p089 Linux 64 bit - (Thu Jan 19 11:47:08 PST 2023)"
*|DESIGN "DLY1X1_LP"
*|DIVIDER /
*|DELIMITER #
*|DeviceFingerDelim "@"
*|BUSBIT []
*|GLOBAL_TEMPERATURE 25
*|OPERATING_TEMPERATURE 25
** QRC_TECH_DIR /vols/wfo_devel/projects/reference_SKY130/tech/sky130_release_0.0.4/quantus/extraction/typical 
** HIERARCHICAL_SPLIT_PINS_DELIMITER '%'
** caps2d version: 10
*
.SUBCKT  DLY1X1_LP A VDD VSS Y
*
*Net Section
*
*|GROUND_NET VSS
*
*|NET A 5.59121e-16
*|P (A X 0 0.9350 1.7950)
*|I (MX23/M0#g MX23/M0 g X 0 0.4750 0.8000)
*|I (MX22/M0#g MX22/M0 g X 0 0.4750 3.2800)
*|S (A#8 0.4800 1.6600)
*|S (A#9 0.4800 1.4950)
*|S (A#10 0.9200 1.6600)
*|S (A#11 0.4800 1.6600)
*|S (A#12 0.9200 1.6600)
CA1 MX22/M0#g VSS 2.73022e-18
CA2 MX23/M0#g VSS 1.51065e-17
CA3 A#12 VSS 1.00877e-17
CA4 A#11 VSS 1.39214e-17
CA5 A#10 VSS 1.92492e-17
CA6 A VSS 9.49262e-18
CA7 A#12 13 4.76698e-18
CA8 MX23/M0#g 13 1.67862e-18
CA9 A#10 13 3.58785e-18
CA10 MX23/M0#g 1#23 2.37572e-18
CA11 A#11 1#23 2.12971e-18
CA12 MX22/M0#g 1#18 1.78242e-18
CA13 A#12 1#22 7.86387e-18
CA14 A#11 1#22 2.05205e-17
CA15 A#11 1#16 6.31505e-18
CA16 A#10 1#16 1.42826e-17
CA17 MX23/M0#g MX23/M0#d 8.14645e-18
CA18 A 1#16 2.6325e-17
CA19 A#12 1#23 1.67349e-17
CA20 A#10 MX29/M0#g 3.07646e-18
CA21 A#12 MX29/M0#g 6.16726e-18
CA22 MX22/M0#g 1#12 4.095e-18
CA23 MX22/M0#g 1#17 6.11868e-18
CA24 A 1#22 1.64833e-17
CA25 A#11 1#17 1.67016e-17
CA26 A#11 MX23/M0#d 6.38082e-18
CA27 A 1#20 2.61738e-17
CA28 MX22/M0#g MX22/M0#d 6.02125e-18
CA29 A#11 VSS#20 2.79528e-18
CA30 A#10 VSS#20 2.40557e-18
CA31 A#12 VSS#14 2.39894e-18
CA32 A#12 VSS#20 1.32969e-17
CA33 A#10 MX29/M0#s 3.20829e-18
CA34 MX23/M0#g VSS#14 4.29097e-18
CA35 A#11 MX29/M0#s 3.90865e-18
CA36 MX23/M0#g VSS#20 4.8201e-18
CA37 MX23/M0#g MX29/M0#s 7.3052e-18
CA38 A#10 VDD#20 1.83839e-18
CA39 A VDD#20 2.62291e-17
CA40 A#10 VDD#23 7.02847e-18
CA41 MX22/M0#g MX22/M0#s 9.0614e-18
CA42 MX22/M0#g VDD#20 5.21861e-18
CA43 MX22/M0#g VDD 1.32124e-17
CA44 MX22/M0#g VDD#13 5.77573e-18
CA45 A#12 VDD#7 1.06935e-17
CA46 A VDD 4.96225e-18
CA47 A#12 VDD#23 6.41997e-17
CA48 A VDD#23 8.81555e-17
RgA1 MX22/M0#g A#8 501.719086 $L=1.62 $W=0.15
RgA2 A#8 A#9 34.134449 $L=0.1645 $W=0.27
RgA3 A#9 MX23/M0#g 223.371292 $L=0.695 $W=0.15
RfA4 A#10 A#11 33.129410 $L=0.44 $W=0.17
ReA5 A A#12 0.064904 $L=0.135 $W=0.26
RjA6 A#10 A#12 152.000000 $A=0.0289
RiA7 A#8 A#11 15.000000 $A=0.0289
*
*|NET 1 6.92167e-16
*|I (MX29/M0#g MX29/M0 g X 0 0.9050 0.8000)
*|I (MX23/M0#d MX23/M0 d X 0 0.3995 0.8000)
*|I (MX22/M0#d MX22/M0 d X 0 0.3995 3.2800)
*|I (MM0#g MM0 g X 0 0.9050 3.2800)
*|S (1 0.9050 3.2800)
*|S (1#8 0.9050 2.1400)
*|S (1#9 0.9050 1.9750)
*|S (1#11 0.2600 3.2800)
*|S (1#12 0.2600 3.0900)
*|S (1#13 0.2600 0.8500)
*|S (1#15 0.2600 0.8000)
*|S (1#16 0.9050 2.1400)
*|S (1#17 0.2600 2.1400)
*|S (1#18 0.2600 3.0900)
*|S (1#19 0.2325 2.9450)
*|S (1#20 0.2325 2.2845)
*|S (1#21 0.2600 2.1400)
*|S (1#22 0.2325 1.9950)
*|S (1#23 0.2325 0.9945)
*|S (1#24 0.2600 0.8500)
CE1 MX23/M0#d VSS 1.05992e-17
CE2 MX29/M0#g VSS 2.50442e-17
CE3 1#23 VSS 4.39748e-17
CE4 1#22 VSS 2.71043e-17
CE5 1#20 VSS 5.38726e-19
CE6 1#18 VSS 1.32762e-18
CE7 1#16 VSS 3.85289e-18
CE8 1#17 VSS 7.1175e-18
CE9 1#12 VSS 2.34239e-19
CE10 1 VSS 3.71743e-18
CE11 1#18 15 1.97773e-18
CE12 1#16 15 2.6946e-18
CE13 1 15 7.72091e-18
CE14 1#12 15 1.33892e-18
CE15 1#16 2#18 1.27865e-17
CE16 1#23 2#25 8.31007e-18
CE17 1#23 VSS#14 2.09796e-18
CE18 1#20 VSS#8 1.77052e-18
CE19 1#18 VSS#8 1.69348e-18
CE20 MX23/M0#d MX29/M0#s 1.98728e-17
CE21 MX29/M0#g VSS#20 3.77684e-18
CE22 MX29/M0#g VSS#14 4.29097e-18
CE23 1#23 VSS#20 2.1504e-17
CE24 MX23/M0#d VSS#15 4.62862e-18
CE25 1#23 MX29/M0#s 7.87036e-18
CE26 MX23/M0#d VSS#20 6.40694e-18
CE27 1#23 VSS#15 4.26788e-18
CE28 MX29/M0#g MX29/M0#s 6.21439e-18
RgE58 1 1#8 347.479065 $L=1.14 $W=0.15
RgE59 1#8 1#9 34.134449 $L=0.1645 $W=0.27
RgE60 1#9 MX29/M0#g 377.611298 $L=1.175 $W=0.15
RfE61 1#11 1#12 14.305882 $L=0.19 $W=0.17
RfE62 1#13 1#15 3.764706 $L=0.05 $W=0.17
RfE63 1#16 1#17 48.564705 $L=0.645 $W=0.17
ReE64 1#18 1#19 0.063487 $L=0.1445 $W=0.285
ReE65 1#19 1#20 0.485513 $L=0.66 $W=0.17
ReE66 1#20 1#21 0.083678 $L=0.1445 $W=0.285
ReE67 1#21 1#22 0.063487 $L=0.1445 $W=0.285
ReE68 1#22 1#23 0.735513 $L=1 $W=0.17
ReE69 1#23 1#24 0.083678 $L=0.1445 $W=0.285
RhE70 MX23/M0#d 1#15 15.000000 $A=0.0289
Rh_2_E71 MX22/M0#d 1#11 15.000000 $A=0.0289
RjE72 1#12 1#18 152.000000 $A=0.0289
RjE73 1#17 1#21 152.000000 $A=0.0289
RjE74 1#13 1#24 152.000000 $A=0.0289
RiE75 1#8 1#16 15.000000 $A=0.0289
RmwE76 MM0#g 1 0.001000 $W=1000000
*
*|NET VSS 1.78863e-15
*|P (VSS X 0 2.4150 0.0050)
*|I (MX30/M0#s MX30/M0 s X 0 2.5505 0.8000)
*|I (MX29/M0#s MX29/M0 s X 0 0.8295 0.8000)
*|I (MX26/M0#s MX26/M0 s X 0 2.8895 0.8000)
*|I (MX23/M0#s MX23/M0 s X 0 0.5505 0.8000)
*|I (MX28/M0#g MX28/M0 g X 0 1.3350 3.2800)
*|S (VSS#5 1.3500 2.8145)
*|S (VSS#6 1.3500 2.6500)
*|S (VSS#7 1.9800 2.6500)
*|S (VSS#8 1.3500 2.6500)
*|S (VSS#9 3.6795 0.0000)
*|S (VSS#10 2.7500 0.0000)
*|S (VSS#11 1.8400 0.0000)
*|S (VSS#12 1.8400 0.0000)
*|S (VSS#14 0.6900 0.0000)
*|S (VSS#15 0.0000 0.0000)
*|S (VSS#17 2.7500 0.8000)
*|S (VSS#19 0.6900 0.8000)
*|S (VSS#20 1.8400 0.0000)
*|S (VSS#21 1.9800 2.5050)
*|S (VSS#22 1.9800 2.6500)
RgC30 MX28/M0#g VSS#5 149.464630 $L=0.465 $W=0.15
RgC31 VSS#5 VSS#6 34.134449 $L=0.1645 $W=0.27
RfC32 VSS#7 VSS#8 47.435295 $L=0.63 $W=0.17
RfC33 VSS#9 VSS#10 47.315212 $L=0.9295 $W=0.25
RfC34 VSS#10 VSS#11 46.316811 $L=0.91 $W=0.25
RfC35 VSS#11 VSS#14 58.604813 $L=1.15 $W=0.25
RfC36 VSS#14 VSS#15 35.052811 $L=0.69 $W=0.25
RfC37 VSS#10 VSS#17 53.627445 $L=0.8 $W=0.17
RfC38 VSS#14 VSS#19 53.627445 $L=0.8 $W=0.17
ReC39 VSS VSS#20 0.179688 $L=0.575 $W=0.4
ReC40 VSS#20 VSS#21 2.120672 $L=2.505 $W=0.14
ReC41 VSS#21 VSS#22 0.097672 $L=0.1445 $W=0.23
RhC42 MX30/M0#s VSS#17 15.000000 $A=0.0289
RhC43 MX29/M0#s VSS#19 15.000000 $A=0.0289
Rh_3_C44 VSS#12 VSS#11 2.142857 $A=0.2023
RjC45 VSS#11 VSS#20 21.714285 $A=0.2023
RjC46 VSS#7 VSS#22 152.000000 $A=0.0289
RiC47 VSS#6 VSS#8 15.000000 $A=0.0289
RmwC48 MX26/M0#s MX30/M0#s 0.001000 $W=1000000
RmwC49 MX23/M0#s MX29/M0#s 0.001000 $W=1000000
*
*|NET 3 9.02822e-16
*|I (MX30/M0#d MX30/M0 d X 0 2.3995 0.8000)
*|I (MX26/M0#g MX26/M0 g X 0 2.9650 0.8000)
*|I (MX27/M0#d MX27/M0 d X 0 2.3995 3.2800)
*|I (MX25/M0#g MX25/M0 g X 0 2.9650 3.2400)
*|S (3 2.9650 3.2400)
*|S (3#8 2.9025 1.8345)
*|S (3#9 2.9000 1.6700)
*|S (3#10 2.9025 1.5050)
*|S (3#12 2.2600 3.2800)
*|S (3#13 2.2600 3.1000)
*|S (3#14 2.2600 0.8500)
*|S (3#16 2.2600 0.8000)
*|S (3#17 2.9000 1.6700)
*|S (3#18 2.2600 1.6700)
*|S (3#19 2.2600 3.1000)
*|S (3#20 2.2600 2.9550)
*|S (3#21 2.2600 1.8145)
*|S (3#22 2.2600 1.6700)
*|S (3#23 2.2600 1.5250)
*|S (3#24 2.2600 0.9945)
*|S (3#25 2.2600 0.8500)
CG1 MX27/M0#d VSS 3.29941e-18
CG2 MX26/M0#g VSS 1.83309e-17
CG3 MX30/M0#d VSS 9.92826e-18
CG4 3#25 VSS 1.86905e-17
CG5 3#23 VSS 6.17799e-18
CG6 3#22 VSS 3.19583e-18
CG7 3#19 VSS 1.5889e-18
CG8 3#17 VSS 2.72223e-17
CG9 3#18 VSS 2.4314e-17
CG10 3#13 VSS 1.72947e-18
CG11 3 VSS 5.47717e-19
CG12 MX26/M0#g VSS#10 4.29097e-18
CG13 MX30/M0#d VSS#11 3.8332e-18
CG14 3#25 VSS#11 3.14327e-18
CG15 3#25 VSS#10 2.04023e-18
CG16 3#18 VSS#20 1.45471e-18
CG17 3#19 VSS#7 8.67403e-18
CG18 3#25 MX30/M0#s 5.94455e-18
CG19 3#18 VSS#21 1.04969e-17
CG20 3#22 VSS#21 8.85259e-17
CG21 MX30/M0#d VSS#20 1.07876e-17
CG22 3#23 VSS#21 2.25634e-17
CG23 3#23 VSS#20 8.44838e-18
CG24 3#17 MX30/M0#s 1.0034e-17
CG25 MX30/M0#d MX30/M0#s 1.75363e-17
CG26 3#25 VSS#20 7.49576e-17
CG27 3#19 VSS#21 6.23345e-17
CG28 MX26/M0#g MX30/M0#s 7.63955e-18
RgG97 3 3#8 451.517151 $L=1.405 $W=0.15
RgG98 3#8 3#9 38.764545 $L=0.1645 $W=0.275
RgG99 3#9 3#10 38.764545 $L=0.1645 $W=0.275
RgG100 3#10 MX26/M0#g 226.583817 $L=0.705 $W=0.15
RfG101 3#12 3#13 13.552941 $L=0.18 $W=0.17
RfG102 3#14 3#16 3.764706 $L=0.05 $W=0.17
RfG103 3#17 3#18 48.188236 $L=0.64 $W=0.17
ReG104 3#19 3#20 0.078668 $L=0.1445 $W=0.23
ReG105 3#20 3#21 1.018129 $L=1.14 $W=0.14
ReG106 3#21 3#22 0.097672 $L=0.1445 $W=0.23
ReG107 3#22 3#23 0.078668 $L=0.1445 $W=0.23
ReG108 3#23 3#24 0.473486 $L=0.53 $W=0.14
ReG109 3#24 3#25 0.097672 $L=0.1445 $W=0.23
RhG110 MX30/M0#d 3#16 15.000000 $A=0.0289
Rh_2_G111 MX27/M0#d 3#12 15.000000 $A=0.0289
RjG112 3#13 3#19 152.000000 $A=0.0289
RjG113 3#18 3#22 152.000000 $A=0.0289
RjG114 3#14 3#25 152.000000 $A=0.0289
RiG115 3#9 3#17 15.000000 $A=0.0289
RmwG116 MX25/M0#g 3 0.001000 $W=1000000
*
*|NET 13 1.07682e-16
*|I (MX29/M0#d MX29/M0 d X 0 0.9805 0.8000)
*|I (MX24/M0#s MX24/M0 s X 0 1.2595 0.8000)
*|S (13 1.1200 0.7950)
CH1 13 VSS 1.13675e-17
CH2 13 MX29/M0#s 2.3843e-17
CH3 13 VSS#20 5.74266e-18
CH4 13 VSS#14 6.01954e-18
RmwH117 MX29/M0#d 13 0.001000 $W=1000000
RmwH118 MX24/M0#s 13 0.001000 $W=1000000
*
*|NET 15 1.46828e-16
*|I (MX28/M0#s MX28/M0 s X 0 1.2595 3.2800)
*|I (MM0#d MM0 d X 0 0.9805 3.2800)
*|S (15 1.1200 3.2350)
CH5 15 VSS 5.8389e-18
CH6 15 MX28/M0#g 8.70475e-18
CH7 15 VSS#8 1.45492e-17
RmwH119 MX28/M0#s 15 0.001000 $W=1000000
RmwH120 MM0#d 15 0.001000 $W=1000000
*
*|NET 2 1.15211e-15
*|I (MX30/M0#g MX30/M0 g X 0 2.4750 0.8000)
*|I (MX24/M0#d MX24/M0 d X 0 1.4105 0.8000)
*|I (MX28/M0#d MX28/M0 d X 0 1.4105 3.2800)
*|I (MX27/M0#g MX27/M0 g X 0 2.4750 3.2800)
*|S (2 2.4750 3.2800)
*|S (2#8 2.4750 2.3045)
*|S (2#9 2.3650 2.1400)
*|S (2#10 2.4750 1.9750)
*|S (2#12 1.5500 3.2800)
*|S (2#13 1.5500 3.1000)
*|S (2#14 1.5500 0.8500)
*|S (2#16 1.5500 0.8000)
*|S (2#17 2.3650 2.1400)
*|S (2#18 1.6100 2.1400)
*|S (2#19 1.5500 3.1000)
*|S (2#20 1.6550 2.9550)
*|S (2#21 1.6100 2.2845)
*|S (2#22 1.6100 2.1400)
*|S (2#23 1.6100 1.9950)
*|S (2#24 1.6550 0.9945)
*|S (2#25 1.5500 0.8500)
CF1 MX28/M0#d VSS 1.86754e-18
CF2 MX24/M0#d VSS 4.92422e-18
CF3 MX30/M0#g VSS 2.0968e-17
CF4 2#25 VSS 1.28592e-17
CF5 2#23 VSS 1.21144e-17
CF6 2#19 VSS 6.47735e-18
CF7 2#17 VSS 5.38064e-18
CF8 2#13 VSS 8.81563e-19
CF9 2#18 VSS 1.51617e-17
CF10 2 VSS 4.52516e-19
CF11 MX24/M0#d 13 1.79961e-17
CF12 2#19 15 5.86067e-18
CF13 2#13 15 1.12459e-17
CF14 2#25 13 7.1038e-18
CF15 MX28/M0#d 15 1.63871e-17
CF16 2#13 3#13 4.19796e-18
CF17 2 3#13 4.0222e-18
CF18 2#23 3#18 2.37684e-18
CF19 2#13 3#19 2.15269e-18
CF20 2#19 3#13 2.00316e-18
CF21 2 3#18 1.97299e-18
CF22 MX28/M0#d MX27/M0#d 1.78006e-18
CF23 2#17 3#19 1.63168e-18
CF24 MX30/M0#g 3#25 1.51769e-18
CF25 2 3#19 1.44174e-18
CF26 2#17 3#22 3.02483e-17
CF27 MX24/M0#d MX30/M0#d 7.24157e-18
CF28 2 MX27/M0#d 5.73143e-18
CF29 2#19 3#19 2.81133e-17
CF30 MX30/M0#g MX30/M0#d 7.83375e-18
CF31 2#17 3#13 4.76033e-18
CF32 2#17 3#18 2.67677e-17
CF33 MX30/M0#g 3#18 7.25475e-18
CF34 MX30/M0#g VSS#10 5.74683e-18
CF35 MX28/M0#d MX28/M0#g 5.43497e-18
CF36 2#19 VSS#7 4.86783e-18
CF37 2#13 MX28/M0#g 3.81831e-18
CF38 2#22 VSS#7 2.73929e-18
CF39 2#22 VSS#8 9.23472e-18
CF40 2#25 VSS#11 6.33584e-18
CF41 2#19 VSS#8 8.86136e-18
CF42 MX24/M0#d VSS#11 7.24683e-18
CF43 2#22 VSS#21 7.79766e-17
CF44 2#23 VSS#21 6.62712e-17
CF45 2#18 VSS#21 1.33326e-17
CF46 MX24/M0#d VSS#20 1.4354e-17
CF47 2#25 VSS#21 1.85427e-17
CF48 MX30/M0#g MX30/M0#s 6.66432e-18
CF49 2#18 VSS#7 1.13239e-17
CF50 2#17 VSS#21 1.32556e-17
CF51 2#25 VSS#20 1.00363e-16
CF52 2#13 VSS#8 1.80073e-17
CF53 2#17 VSS#7 9.40731e-18
CF54 2#19 VSS#21 3.14122e-17
CF55 2#18 VSS#8 1.6848e-17
RgF77 2 2#8 313.337646 $L=0.975 $W=0.15
RgF78 2#8 2#9 38.511887 $L=0.1645 $W=0.32
RgF79 2#9 2#10 38.511887 $L=0.1645 $W=0.32
RgF80 2#10 MX30/M0#g 377.604340 $L=1.175 $W=0.15
RfF81 2#12 2#13 13.552941 $L=0.18 $W=0.17
RfF82 2#14 2#16 3.764706 $L=0.05 $W=0.17
RfF83 2#17 2#18 56.847057 $L=0.755 $W=0.17
ReF84 2#19 2#20 0.062392 $L=0.1445 $W=0.29
ReF85 2#20 2#21 0.598458 $L=0.67 $W=0.14
ReF86 2#21 2#22 0.097672 $L=0.1445 $W=0.23
ReF87 2#22 2#23 0.078668 $L=0.1445 $W=0.23
ReF88 2#23 2#24 0.893101 $L=1 $W=0.14
ReF89 2#24 2#25 0.095940 $L=0.1445 $W=0.29
RhF90 MX24/M0#d 2#16 15.000000 $A=0.0289
Rh_2_F91 MX28/M0#d 2#12 15.000000 $A=0.0289
RjF92 2#13 2#19 152.000000 $A=0.0289
RjF93 2#18 2#22 152.000000 $A=0.0289
RjF94 2#14 2#25 152.000000 $A=0.0289
RiF95 2#9 2#17 15.000000 $A=0.0289
RmwF96 MX27/M0#g 2 0.001000 $W=1000000
*
*|NET Y 5.51236e-16
*|P (Y X 0 3.2350 2.0100)
*|I (MX26/M0#d MX26/M0 d X 0 3.0405 0.8000)
*|I (MX25/M0#d MX25/M0 d X 0 3.0405 3.2400)
*|S (Y#2 3.1800 3.2400)
*|S (Y#3 3.1800 2.9450)
*|S (Y#4 3.1800 1.0050)
*|S (Y#6 3.1800 0.8000)
*|S (Y#7 3.1800 1.0050)
*|S (Y#8 3.1800 2.9450)
CD1 MX26/M0#d VSS 3.33312e-17
CD2 Y#8 VSS 4.82473e-18
CD3 Y#7 VSS 7.49709e-17
CD4 Y#3 VSS 1.38987e-18
CD5 Y VSS 2.1717e-17
CD6 Y#7 3#22 2.65674e-18
CD7 Y#7 MX26/M0#g 2.61538e-18
CD8 Y#8 MX27/M0#d 2.35857e-18
CD9 Y#3 3#17 2.29036e-18
CD10 Y#8 3#22 2.11242e-18
CD11 Y#7 MX30/M0#d 1.93216e-18
CD12 MX26/M0#d 3#23 1.7433e-18
CD13 Y#3 3 1.14028e-17
CD14 Y#8 3#19 3.494e-17
CD15 Y 3#22 2.15208e-17
CD16 MX26/M0#d 3#17 1.19369e-17
CD17 Y 3#17 1.91274e-17
CD18 Y#3 3#19 4.75653e-18
CD19 Y#8 3 3.72151e-18
CD20 Y#7 3#25 1.89571e-17
CD21 Y#7 3#23 1.0153e-17
CD22 MX26/M0#d 3#25 3.74619e-18
CD23 Y#7 3#17 1.46974e-17
CD24 MX26/M0#d MX26/M0#g 8.12494e-18
CD25 Y#8 MX28/M0#d 1.31409e-18
CD26 Y#3 2 9.54401e-19
CD27 Y 2#17 7.42099e-18
CD28 Y#7 VSS#20 1.91504e-18
CD29 MX26/M0#d VSS#20 1.8441e-18
CD30 Y#7 MX30/M0#s 7.91301e-18
CD31 MX26/M0#d MX30/M0#s 2.05428e-17
CD32 MX26/M0#d VSS#10 4.25534e-18
CD33 Y#8 VSS#7 3.3401e-18
CD34 Y#7 VSS#10 3.70801e-18
CD35 Y#7 VSS#9 2.94344e-18
CD36 Y#3 VSS#7 2.88143e-18
RfD50 Y#2 Y#3 22.211765 $L=0.295 $W=0.17
RfD51 Y#4 Y#6 15.435293 $L=0.205 $W=0.17
ReD52 Y Y#7 0.440789 $L=1.005 $W=0.285
ReD53 Y Y#8 0.410088 $L=0.935 $W=0.285
RhD54 MX26/M0#d Y#6 15.000000 $A=0.0289
Rh_2_D55 MX25/M0#d Y#2 15.000000 $A=0.0289
RjD56 Y#4 Y#7 76.000000 $A=0.0578
RjD57 Y#3 Y#8 76.000000 $A=0.0578
*
*|NET VDD 1.48838e-15
*|P (VDD X 0 2.4150 4.1450)
*|I (MX24/M0#g MX24/M0 g X 0 1.3350 0.8000)
*|I (MX27/M0#s MX27/M0 s X 0 2.5505 3.2800)
*|I (MX25/M0#s MX25/M0 s X 0 2.8895 3.2400)
*|I (MX22/M0#s MX22/M0 s X 0 0.5505 3.2800)
*|I (MM0#s MM0 s X 0 0.8295 3.2800)
*|S (VDD#4 1.3500 1.1250)
*|S (VDD#5 1.3500 1.2900)
*|S (VDD#6 1.3500 1.2900)
*|S (VDD#7 1.3300 1.2900)
*|S (VDD#8 3.6795 4.1400)
*|S (VDD#9 2.7500 4.1400)
*|S (VDD#10 1.8400 4.1400)
*|S (VDD#11 1.8400 4.1400)
*|S (VDD#13 0.6900 4.1400)
*|S (VDD#14 0.0000 4.1400)
*|S (VDD#16 2.7500 3.2400)
*|S (VDD#18 0.6900 3.2800)
*|S (VDD#19 1.8400 4.1400)
*|S (VDD#20 0.4800 4.1400)
*|S (VDD#21 0.8900 3.9400)
*|S (VDD#22 1.3300 1.4345)
*|S (VDD#23 1.3300 1.2900)
CB1 MX22/M0#s VSS 1.42036e-18
CB2 MX27/M0#s VSS 4.03794e-19
CB3 MX24/M0#g VSS 1.64026e-17
CB4 VDD#23 VSS 1.67075e-17
CB5 VDD#20 VSS 5.34518e-18
CB6 VDD#19 VSS 2.80167e-18
CB7 VDD#13 VSS 1.79916e-18
CB8 VDD#9 VSS 1.09398e-18
CB9 VDD#7 VSS 2.47906e-17
CB10 VDD#10 VSS 1.65064e-18
CB11 VDD VSS 1.51361e-18
CB12 VDD#20 13 9.767e-19
CB13 VDD#13 15 6.06011e-18
CB14 VDD#23 15 4.34241e-18
CB15 MX22/M0#s 15 2.68394e-17
CB16 MX24/M0#g 13 6.9416e-18
CB17 VDD#20 15 2.95264e-17
CB18 VDD#7 13 1.76574e-17
CB19 VDD 15 3.7413e-18
CB20 VDD#9 3 4.34129e-18
CB21 VDD#10 MX27/M0#d 3.86582e-18
CB22 VDD MX27/M0#d 3.59916e-18
CB23 VDD#20 MX27/M0#d 2.38692e-18
CB24 VDD#19 MX27/M0#d 2.36074e-18
CB25 VDD#10 3#19 1.95804e-18
CB26 VDD 3#17 1.71708e-18
CB27 VDD 3#22 1.63895e-18
CB28 VDD#23 3#18 1.46913e-18
CB29 VDD#9 3#19 1.33159e-18
CB30 VDD#7 3#23 1.21048e-18
CB31 MX24/M0#g MX30/M0#d 1.14773e-18
CB32 MX27/M0#s MX27/M0#d 1.42521e-17
CB33 VDD#19 3#19 5.77226e-18
CB34 MX27/M0#s 3 1.09456e-17
CB35 VDD 3#13 4.70297e-18
CB36 MX27/M0#s 3#17 6.41014e-18
CB37 MX27/M0#s 3#19 6.89878e-18
CB38 VDD 3#19 1.98937e-17
CB39 MX27/M0#s 3#13 1.17603e-17
CB40 VDD 3 1.75867e-17
CB41 VDD#7 2#18 5.11801e-18
CB42 VDD#20 MX28/M0#d 4.04115e-18
CB43 VDD#10 2#19 3.35032e-18
CB44 VDD 2#22 2.3151e-18
CB45 VDD 2#13 2.09107e-18
CB46 MX24/M0#g 2#25 1.72377e-18
CB47 VDD#7 2#23 1.18368e-18
CB48 VDD#20 2#13 1.12549e-18
CB49 VDD#20 2#19 2.17776e-17
CB50 VDD#9 2 5.77573e-18
CB51 VDD 2#17 1.36261e-17
CB52 VDD#23 2#18 1.60816e-17
CB53 VDD#19 MX28/M0#d 5.99861e-18
CB54 VDD#23 2#22 6.05191e-17
CB55 VDD#19 2#19 1.69081e-17
CB56 VDD 2#19 5.89629e-18
CB57 VDD#23 2#25 6.27671e-17
CB58 VDD#23 2#19 2.24135e-17
CB59 VDD#10 MX28/M0#d 7.29323e-18
CB60 VDD 2#18 8.53379e-18
CB61 MX27/M0#s 2 9.27619e-18
CB62 VDD#23 2#23 5.18023e-17
CB63 VDD#7 2#25 1.29489e-17
CB64 VDD 2 1.85143e-17
CB65 VDD#7 MX24/M0#d 2.00227e-17
CB66 MX24/M0#g MX24/M0#d 7.45193e-18
CB67 VDD#20 1 3.23844e-18
CB68 VDD#14 1#18 2.64411e-18
CB69 VDD#20 1#12 2.18231e-18
CB70 VDD#20 1#17 1.97067e-18
CB71 VDD#13 MX22/M0#d 1.37676e-18
CB72 MX22/M0#s 1#18 5.07413e-18
CB73 MX22/M0#s 1 7.75523e-18
CB74 VDD#13 1 4.31255e-18
CB75 VDD#7 1#23 3.52285e-18
CB76 VDD#20 1#16 6.30007e-18
CB77 VDD 1#16 8.26837e-18
CB78 VDD#20 1#18 4.83875e-17
CB79 VDD#23 1#20 4.00337e-18
CB80 VDD 1#17 1.3157e-17
CB81 VDD 1#12 6.38937e-18
CB82 VDD 1#20 2.38217e-17
CB83 MX22/M0#s 1#16 6.50572e-18
CB84 VDD 1#18 3.33617e-17
CB85 VDD#23 1#16 4.25414e-18
CB86 MX22/M0#s 1#12 1.05861e-17
CB87 VDD 1 5.52925e-18
CB88 VDD#23 1#23 3.69186e-18
CB89 VDD#20 MX22/M0#d 1.08685e-17
CB90 VDD MX22/M0#d 1.08956e-17
CB91 MX22/M0#s MX22/M0#d 1.89806e-17
CB92 VDD#14 MX22/M0#d 4.65982e-18
CB93 VDD#8 Y#3 1.82427e-18
CB94 MX27/M0#s Y#8 1.06389e-17
CB95 VDD Y 1.42904e-17
CB96 VDD#9 Y#8 3.66099e-18
CB97 VDD Y#8 7.86703e-17
CB98 VDD#8 Y#8 2.91847e-18
CB99 VDD#9 Y#3 4.29239e-18
CB100 VDD Y#3 2.93092e-17
CB101 MX27/M0#s Y#3 3.1571e-17
CB102 VDD#20 VSS#8 6.9957e-18
CB103 VDD#19 VSS#7 5.24831e-18
CB104 VDD#10 MX28/M0#g 5.05964e-18
CB105 MX24/M0#g VSS#11 4.87612e-18
CB106 VDD#7 VSS#20 4.3134e-18
CB107 MX24/M0#g VSS#20 4.11234e-18
CB108 VDD#10 VSS#7 3.13668e-18
CB109 VDD#23 MX28/M0#g 3.08911e-18
CB110 VDD#10 VSS#21 2.58511e-18
CB111 MX22/M0#s MX28/M0#g 1.8701e-18
CB112 VDD#23 VSS#11 1.63433e-18
CB113 MX24/M0#g MX29/M0#s 1.5052e-18
CB114 VDD#7 VSS#11 1.33091e-18
CB115 VDD#23 VSS#14 1.06674e-18
CB116 VDD VSS#21 1.03761e-17
CB117 VDD VSS#8 1.35359e-17
CB118 VDD VSS#7 1.73074e-17
CB119 VDD MX28/M0#g 1.06754e-17
CB120 VDD#23 VSS#20 9.81421e-18
CB121 VDD#23 VSS#8 2.0672e-17
CB122 VDD#19 VSS#21 1.007e-17
RgB8 MX24/M0#g VDD#4 104.477959 $L=0.325 $W=0.15
RgB9 VDD#4 VDD#5 34.134449 $L=0.1645 $W=0.27
RfB10 VDD#6 VDD#7 1.505882 $L=0.02 $W=0.17
RfB11 VDD#8 VDD#9 47.315212 $L=0.9295 $W=0.25
RfB12 VDD#9 VDD#10 46.316811 $L=0.91 $W=0.25
RfB13 VDD#10 VDD#13 58.604813 $L=1.15 $W=0.25
RfB14 VDD#13 VDD#14 35.052811 $L=0.69 $W=0.25
RfB15 VDD#9 VDD#16 61.156857 $L=0.9 $W=0.17
RfB16 VDD#13 VDD#18 58.145092 $L=0.86 $W=0.17
ReB17 VDD VDD#19 0.179688 $L=0.575 $W=0.4
ReB18 VDD#19 VDD#20 0.318241 $L=1.36 $W=0.4
ReB19 VDD#20 VDD#21 0.043337 $L=0.1995 $W=0.96
ReB20 VDD#21 VDD#22 2.479136 $L=2.9 $W=0.14
ReB21 VDD#22 VDD#23 0.097672 $L=0.1445 $W=0.23
Rh_1_B22 VDD#11 VDD#10 2.142857 $A=0.2023
Rh_2_B23 MX27/M0#s VDD#16 15.000000 $A=0.0289
Rh_2_B24 MX22/M0#s VDD#18 15.000000 $A=0.0289
RjB25 VDD#10 VDD#19 21.714285 $A=0.2023
RjB26 VDD#7 VDD#23 152.000000 $A=0.0289
RiB27 VDD#5 VDD#6 15.000000 $A=0.0289
RmwB28 MX25/M0#s MX27/M0#s 0.001000 $W=1000000
RmwB29 MM0#s MX22/M0#s 0.001000 $W=1000000
*
*Instance Section
*
MX30/M0	MX30/M0#d	MX30/M0#g	MX30/M0#s	VSS	nfet_01v8
+ L=1.5e-07	W=4.2e-07
MX29/M0	MX29/M0#d	MX29/M0#g	MX29/M0#s	VSS	nfet_01v8
+ L=1.5e-07	W=4.2e-07
MX26/M0	MX26/M0#d	MX26/M0#g	MX26/M0#s	VSS	nfet_01v8
+ L=1.5e-07	W=4.2e-07
MX24/M0	MX24/M0#d	MX24/M0#g	MX24/M0#s	VSS	nfet_01v8
+ L=1.5e-07	W=4.2e-07
MX23/M0	MX23/M0#d	MX23/M0#g	MX23/M0#s	VSS	nfet_01v8
+ L=1.5e-07	W=4.2e-07
MX28/M0	MX28/M0#d	MX28/M0#g	MX28/M0#s	VDD	pfet_01v8_hvt
+ L=1.5e-07	W=5.4e-07
MX27/M0	MX27/M0#d	MX27/M0#g	MX27/M0#s	VDD	pfet_01v8_hvt
+ L=1.5e-07	W=5.4e-07
MX25/M0	MX25/M0#d	MX25/M0#g	MX25/M0#s	VDD	pfet_01v8_hvt
+ L=1.5e-07	W=6.2e-07
MX22/M0	MX22/M0#d	MX22/M0#g	MX22/M0#s	VDD	pfet_01v8_hvt
+ L=1.5e-07	W=5.4e-07
MM0	MM0#d	MM0#g	MM0#s	VDD	pfet_01v8_hvt	L=1.5e-07
+ W=5.4e-07
.ENDS
