*
*|DSPF 1.5
*
*|DATE "Fri Feb 28 13:24:06 2025"
*|VENDOR "Cadence Design Systems"
*|PROGRAM "Cadence Quantus Extraction"
*|VERSION "22.1.0-p089 Linux 64 bit - (Thu Jan 19 11:47:08 PST 2023)"
*|DESIGN "DLY1X4_LP"
*|DIVIDER /
*|DELIMITER #
*|DeviceFingerDelim "@"
*|BUSBIT []
*|GLOBAL_TEMPERATURE 25
*|OPERATING_TEMPERATURE 25
** QRC_TECH_DIR /vols/wfo_devel/projects/reference_SKY130/tech/sky130_release_0.0.4/quantus/extraction/typical 
** HIERARCHICAL_SPLIT_PINS_DELIMITER '%'
** caps2d version: 10
*
.SUBCKT  DLY1X4_LP A VDD VSS Y
*
*Net Section
*
*|GROUND_NET VSS
*
*|NET VSS 2.16361e-15
*|P (VSS X 0 2.4150 0.0050)
*|I (MX34/M0#s MX34/M0 s X 0 2.6395 0.8000)
*|I (MX34/M1#d MX34/M1 d X 0 3.2205 0.8000)
*|I (MX34/M2#s MX34/M2 s X 0 3.4995 0.8000)
*|I (MX34/M3#d MX34/M3 d X 0 4.0805 0.8000)
*|I (MX32/M0#s MX32/M0 s X 0 0.8295 0.8000)
*|I (MX22/M0#s MX22/M0 s X 0 2.3605 0.8000)
*|I (MX21/M0#s MX21/M0 s X 0 0.5505 0.8000)
*|I (MX31/M0#g MX31/M0 g X 0 1.3350 3.2800)
*|S (VSS#5 1.4250 2.6500)
*|S (VSS#6 1.3350 2.7845)
*|S (VSS#7 1.4250 2.6500)
*|S (VSS#8 1.2100 2.6500)
*|S (VSS#10 4.2200 0.8000)
*|S (VSS#11 4.3675 0.0000)
*|S (VSS#12 3.3600 0.0000)
*|S (VSS#13 2.5000 0.0000)
*|S (VSS#14 2.3000 0.0000)
*|S (VSS#15 2.3000 0.0000)
*|S (VSS#17 0.6900 0.0000)
*|S (VSS#18 0.0000 0.0000)
*|S (VSS#20 3.3600 0.8000)
*|S (VSS#22 2.5000 0.8000)
*|S (VSS#24 0.6900 0.8000)
*|S (VSS#25 2.3000 0.0000)
*|S (VSS#26 0.6800 0.0000)
*|S (VSS#27 1.2750 0.1995)
*|S (VSS#28 1.2275 2.5050)
*|S (VSS#29 1.2100 2.6500)
RgC37 VSS#5 VSS#6 31.545456 $L=0.1345 $W=0.33
RgC38 VSS#6 MX31/M0#g 159.096512 $L=0.495 $W=0.15
RfC39 VSS#7 VSS#8 16.188236 $L=0.215 $W=0.17
RfC40 VSS#10 VSS#11 60.256741 $L=0.8 $W=0.17
RfC41 VSS#11 VSS#12 43.418163 $L=1.0075 $W=0.25
RfC42 VSS#12 VSS#13 43.481621 $L=0.86 $W=0.25
RfC43 VSS#13 VSS#14 9.964811 $L=0.2 $W=0.25
RfC44 VSS#14 VSS#17 82.156807 $L=1.61 $W=0.25
RfC45 VSS#17 VSS#18 35.052811 $L=0.69 $W=0.25
RfC46 VSS#12 VSS#20 53.627445 $L=0.8 $W=0.17
RfC47 VSS#13 VSS#22 53.627445 $L=0.8 $W=0.17
RfC48 VSS#17 VSS#24 53.627445 $L=0.8 $W=0.17
ReC49 VSS VSS#25 0.035937 $L=0.115 $W=0.4
ReC50 VSS#25 VSS#26 0.344317 $L=1.62 $W=0.4
ReC51 VSS#26 VSS#27 0.050640 $L=0.1995 $W=1.36
ReC52 VSS#27 VSS#28 1.694994 $L=2.305 $W=0.17
ReC53 VSS#28 VSS#29 0.084295 $L=0.1445 $W=0.265
RhC54 MX34/M3#d VSS#10 15.000000 $A=0.0289
RhC55 MX34/M1#d VSS#20 15.000000 $A=0.0289
RhC56 MX34/M0#s VSS#22 15.000000 $A=0.0289
RhC57 MX32/M0#s VSS#24 15.000000 $A=0.0289
Rh_3_C58 VSS#15 VSS#14 1.666667 $A=0.2601
RjC59 VSS#14 VSS#25 16.888889 $A=0.2601
RjC60 VSS#8 VSS#29 152.000000 $A=0.0289
RiC61 VSS#5 VSS#7 15.000000 $A=0.0289
RmwC62 MX34/M2#s MX34/M1#d 0.001000 $W=1000000
RmwC63 MX22/M0#s MX34/M0#s 0.001000 $W=1000000
RmwC64 MX21/M0#s MX32/M0#s 0.001000 $W=1000000
*
*|NET 2 1.09483e-15
*|I (MX23/M0#d MX23/M0 d X 0 1.4105 0.8000)
*|I (MX22/M0#g MX22/M0 g X 0 2.2850 0.8000)
*|I (MX31/M0#d MX31/M0 d X 0 1.4105 3.2800)
*|I (MX20/M0#g MX20/M0 g X 0 2.2850 3.2400)
*|S (2 2.2850 3.2400)
*|S (2#8 2.2250 1.7895)
*|S (2#9 2.2250 1.6275)
*|S (2#10 2.2250 1.4600)
*|S (2#11 1.5500 3.3850)
*|S (2#13 1.5500 3.2800)
*|S (2#14 1.5500 0.7775)
*|S (2#16 1.5500 0.8000)
*|S (2#17 1.6150 0.7550)
*|S (2#18 1.6150 0.7775)
*|S (2#19 2.2250 1.6275)
*|S (2#20 1.6150 1.6300)
*|S (2#21 1.6150 1.6300)
*|S (2#22 1.6150 1.7745)
*|S (2#23 1.5500 3.2400)
*|S (2#24 1.5500 3.3850)
*|S (2#25 1.6150 1.4850)
*|S (2#26 1.6150 0.8995)
*|S (2#27 1.6150 0.7550)
CF1 MX31/M0#d VSS 3.45706e-18
CF2 MX22/M0#g VSS 1.8338e-17
CF3 2#26 VSS 3.05419e-18
CF4 2#25 VSS 8.54673e-18
CF5 2#24 VSS 7.14382e-18
CF6 2#21 VSS 9.39398e-18
CF7 2#19 VSS 1.82703e-17
CF8 2#18 VSS 4.57518e-18
CF9 2#14 VSS 4.37957e-18
CF10 2#20 VSS 2.93931e-17
CF11 2 VSS 2.29971e-18
CF12 2#24 12 1.16132e-17
CF13 2#14 10 1.83089e-17
CF14 MX31/M0#d 12 2.46205e-17
CF15 2#26 10 1.28306e-18
CF16 2#19 3#39 5.41074e-18
CF17 MX31/M0#d 3#42 5.33395e-18
CF18 2 3#41 5.24078e-18
CF19 2#21 3#41 4.32836e-18
CF20 2#20 3#41 4.23949e-18
CF21 2#26 3#39 4.21526e-18
CF22 2#26 3#47 4.50771e-17
CF23 2#19 3#41 2.24441e-17
CF24 2#24 3#42 5.37179e-17
CF25 MX31/M0#d MX20/M0#d 1.61763e-17
CF26 2#21 3#44 8.0757e-17
CF27 2#19 3#44 2.98629e-17
CF28 2#18 3#39 1.70693e-17
CF29 2#18 3#47 5.5657e-18
CF30 MX22/M0#g 3#39 6.68902e-18
CF31 2 MX20/M0#d 1.12024e-17
CF32 2#24 MX20/M0#d 6.69299e-18
CF33 2#25 3#47 1.87668e-17
CF34 2#24 3#44 1.87708e-17
CF35 2#26 VSS#13 5.27625e-18
CF36 MX22/M0#g VSS#25 4.8201e-18
CF37 2#18 VSS#13 4.66377e-18
CF38 2#19 VSS#25 4.65086e-18
CF39 2#20 VSS#25 3.09046e-18
CF40 2#18 VSS#26 2.96494e-18
CF41 2#20 VSS#26 2.62077e-18
CF42 2#14 VSS#13 2.37275e-18
CF43 2#21 VSS#29 1.30194e-16
CF44 2#14 VSS#26 1.21109e-17
CF45 MX31/M0#d VSS#7 9.8725e-18
CF46 2#24 VSS#7 1.58705e-17
CF47 2#20 VSS#29 6.9436e-18
CF48 MX22/M0#g MX34/M0#s 6.57799e-18
CF49 2#24 VSS#29 4.61569e-17
CF50 2#25 VSS#29 1.9748e-17
CF51 2#25 VSS#26 2.04833e-17
CF52 MX22/M0#g VSS#13 5.74683e-18
CF53 MX31/M0#d MX31/M0#g 7.80643e-18
CF54 2#26 VSS#26 9.59678e-17
RgF109 2 2#8 465.977966 $L=1.45 $W=0.15
RgF110 2#8 2#9 38.411682 $L=0.162 $W=0.27
RgF111 2#9 2#10 29.857224 $L=0.167 $W=0.27
RgF112 2#10 MX22/M0#g 212.124634 $L=0.66 $W=0.15
RfF113 2#11 2#13 7.905882 $L=0.105 $W=0.17
RfF114 2#14 2#16 1.225532 $L=0.0225 $W=0.235
RfF115 2#17 2#18 1.225532 $L=0.0225 $W=0.235
RfF116 2#14 2#18 1.957647 $L=0.065 $W=0.425
RfF117 2#19 2#20 45.929413 $L=0.61 $W=0.17
ReF118 2#21 2#22 0.078668 $L=0.1445 $W=0.23
ReF119 2#22 2#23 1.077478 $L=1.465 $W=0.165
ReF120 2#23 2#24 0.078691 $L=0.1445 $W=0.23
ReF121 2#21 2#25 0.078668 $L=0.1445 $W=0.23
ReF122 2#25 2#26 0.430419 $L=0.585 $W=0.17
ReF123 2#26 2#27 0.087429 $L=0.1445 $W=0.23
RhF124 MX23/M0#d 2#16 15.000000 $A=0.0289
Rh_2_F125 MX31/M0#d 2#13 15.000000 $A=0.0289
RjF126 2#20 2#21 152.000000 $A=0.0289
RjF127 2#11 2#24 152.000000 $A=0.0289
RjF128 2#17 2#27 152.000000 $A=0.0289
RiF129 2#9 2#19 15.000000 $A=0.02805
RmwF130 MX20/M0#g 2 0.001000 $W=1000000
*
*|NET Y 1.1265e-15
*|P (Y X 0 3.6920 2.0890)
*|I (MX34/M0#d MX34/M0 d X 0 2.7905 0.8000)
*|I (MX34/M1#s MX34/M1 s X 0 3.0695 0.8000)
*|I (MX34/M2#d MX34/M2 d X 0 3.6505 0.8000)
*|I (MX34/M3#s MX34/M3 s X 0 3.9295 0.8000)
*|I (MX33/M0#d MX33/M0 d X 0 2.7905 3.2400)
*|I (MX33/M1#s MX33/M1 s X 0 3.0695 3.2400)
*|I (MX33/M2#d MX33/M2 d X 0 3.6505 3.2400)
*|I (MX33/M3#s MX33/M3 s X 0 3.9295 3.2400)
*|S (Y#2 2.9300 3.2400)
*|S (Y#3 2.9300 3.0250)
*|S (Y#4 2.9300 0.9350)
*|S (Y#6 2.9300 0.8000)
*|S (Y#8 3.7900 3.2400)
*|S (Y#9 3.7900 3.0250)
*|S (Y#10 3.7900 0.9350)
*|S (Y#12 3.7900 0.8000)
*|S (Y#13 3.7900 3.0250)
*|S (Y#14 3.7900 0.9350)
*|S (Y#15 3.7275 0.7250)
*|S (Y#16 2.9300 0.9350)
*|S (Y#17 2.9300 3.0250)
*|S (Y#18 2.9300 3.4450)
*|S (Y#19 3.7275 3.4450)
*|S (Y#20 3.7325 3.2550)
CD1 Y#18 VSS 1.52215e-18
CD2 Y#17 VSS 3.61303e-18
CD3 Y#16 VSS 2.56136e-17
CD4 Y#14 VSS 3.17149e-17
CD5 Y#13 VSS 1.65369e-18
CD6 Y#20 VSS 6.73348e-18
CD7 Y#4 VSS 1.52342e-17
CD8 Y#3 VSS 1.38371e-18
CD9 Y#10 VSS 1.41916e-17
CD10 Y VSS 2.68842e-17
CD11 Y#4 3#47 5.16284e-18
CD12 Y#3 3#42 3.74866e-18
CD13 Y#4 3#40 3.69345e-18
CD14 Y#10 3#40 3.69345e-18
CD15 Y#16 MX34/M1#g 3.6081e-18
CD16 Y#18 MX33/M1#g 3.04429e-18
CD17 Y#3 3#44 2.90624e-18
CD18 Y#14 MX34/M3#g 2.8742e-18
CD19 Y#20 MX33/M3#g 2.40877e-18
CD20 Y#18 3#40 1.95309e-18
CD21 Y#16 3#40 1.91562e-18
CD22 Y#16 MX34/M0#g 1.77184e-18
CD23 Y#3 MX33/M2#g 1.76764e-18
CD24 Y#9 MX33/M1#g 1.76764e-18
CD25 Y#16 3#39 1.6775e-18
CD26 Y#14 MX34/M2#g 1.66195e-18
CD27 Y#13 MX33/M3#g 1.32457e-18
CD28 Y#18 3 1.29164e-18
CD29 Y#14 3#40 1.25542e-18
CD30 Y#18 MX20/M0#d 1.22759e-18
CD31 Y#4 MX34/M2#g 1.20633e-18
CD32 Y#10 MX34/M1#g 1.20633e-18
CD33 Y#17 MX33/M1#g 1.19917e-18
CD34 Y#16 3#47 3.16569e-17
CD35 Y#16 3#44 2.01597e-17
CD36 Y#3 MX33/M1#g 8.76287e-18
CD37 Y#9 3#40 1.60882e-17
CD38 Y#17 3#44 2.99272e-17
CD39 Y#17 3#42 1.72494e-17
CD40 Y#4 MX34/M1#g 6.2409e-18
CD41 Y 3#40 5.5108e-17
CD42 Y#10 MX34/M3#g 6.95798e-18
CD43 Y#9 MX33/M3#g 9.76411e-18
CD44 Y#18 3#42 1.0716e-17
CD45 Y#3 3#40 1.60882e-17
CD46 Y#4 MX34/M0#g 6.2409e-18
CD47 Y#10 MX34/M2#g 6.2409e-18
CD48 Y#9 MX33/M2#g 8.76287e-18
CD49 Y#17 3#40 4.6958e-17
CD50 Y#3 3 8.76287e-18
CD51 Y#3 2 1.98158e-18
CD52 Y#4 MX22/M0#g 1.41134e-18
CD53 Y#16 2#19 1.02939e-17
CD54 Y#4 VSS#25 5.53788e-18
CD55 Y#10 VSS#25 5.53788e-18
CD56 Y#14 VSS#12 4.82756e-18
CD57 Y#16 VSS#12 4.68115e-18
CD58 Y#16 VSS#13 3.06012e-18
CD59 Y#14 VSS#11 3.04705e-18
CD60 Y#4 VSS#13 2.41753e-18
CD61 Y#10 VSS#12 2.41753e-18
CD62 Y#4 VSS#12 2.39394e-18
CD63 Y#10 VSS#11 2.39394e-18
CD64 Y#3 VSS#7 1.94208e-18
CD65 Y#10 MX34/M1#d 2.12698e-17
CD66 Y#4 MX34/M1#d 2.1389e-17
CD67 Y#14 VSS#25 4.17983e-17
CD68 Y#16 MX34/M0#s 7.38662e-18
CD69 Y#10 MX34/M3#d 2.19851e-17
CD70 Y#14 MX34/M3#d 1.07841e-17
CD71 Y#4 MX34/M0#s 2.19852e-17
CD72 Y#16 VSS#25 3.36674e-17
CD73 Y#14 MX34/M1#d 2.14416e-17
CD74 Y#16 MX34/M1#d 1.25548e-17
RfD65 Y#2 Y#3 16.188236 $L=0.215 $W=0.17
RfD66 Y#4 Y#6 10.164705 $L=0.135 $W=0.17
RfD67 Y#8 Y#9 16.188236 $L=0.215 $W=0.17
RfD68 Y#10 Y#12 10.164705 $L=0.135 $W=0.17
ReD69 Y#13 Y 0.329577 $L=0.936 $W=0.355
ReD70 Y Y#14 0.406338 $L=1.154 $W=0.355
ReD71 Y#14 Y#15 0.070486 $L=0.21 $W=0.355
ReD72 Y#15 Y#16 0.432963 $L=1.0075 $W=0.23
ReD73 Y#16 Y#17 1.135870 $L=2.09 $W=0.23
ReD74 Y#17 Y#18 0.218018 $L=0.42 $W=0.23
ReD75 Y#18 Y#19 0.448157 $L=0.7975 $W=0.17
ReD76 Y#19 Y#20 0.079613 $L=0.195 $W=0.355
ReD77 Y#20 Y#13 0.079225 $L=0.225 $W=0.355
RhD78 MX34/M0#d Y#6 15.000000 $A=0.0289
RhD79 MX34/M2#d Y#12 15.000000 $A=0.0289
Rh_2_D80 MX33/M0#d Y#2 15.000000 $A=0.0289
Rh_2_D81 MX33/M2#d Y#8 15.000000 $A=0.0289
RjD82 Y#9 Y#13 50.666668 $A=0.0867
RjD83 Y#10 Y#14 76.000000 $A=0.0578
RjD84 Y#4 Y#16 76.000000 $A=0.0578
RjD85 Y#3 Y#17 50.666668 $A=0.0867
RmwD86 MX34/M1#s MX34/M0#d 0.001000 $W=1000000
RmwD87 MX34/M3#s MX34/M2#d 0.001000 $W=1000000
RmwD88 MX33/M1#s MX33/M0#d 0.001000 $W=1000000
RmwD89 MX33/M3#s MX33/M2#d 0.001000 $W=1000000
*
*|NET A 6.51875e-16
*|P (A X 0 0.9320 1.4240)
*|I (MX21/M0#g MX21/M0 g X 0 0.4750 0.8000)
*|I (MX19/M0#g MX19/M0 g X 0 0.4750 3.2800)
*|S (A#8 0.4150 1.4545)
*|S (A#9 0.4150 1.2900)
*|S (A#10 0.4150 1.1250)
*|S (A#11 0.9200 1.2900)
*|S (A#12 0.4150 1.2900)
*|S (A#13 0.9200 1.2900)
CA1 MX19/M0#g VSS 3.28494e-18
CA2 MX21/M0#g VSS 1.75205e-17
CA3 A#12 VSS 1.38101e-17
CA4 A#11 VSS 1.74362e-17
CA5 A VSS 9.88028e-18
CA6 MX21/M0#g 10 2.10939e-18
CA7 A#11 10 1.35431e-17
CA8 A 10 1.43451e-17
CA9 A#12 1#21 1.86823e-18
CA10 MX21/M0#g 1#21 1.84966e-18
CA11 MX21/M0#g 1#15 7.67171e-18
CA12 A#12 1#16 7.52248e-18
CA13 MX19/M0#g MX19/M0#d 1.04973e-17
CA14 A 1#21 3.01153e-17
CA15 A 1#18 3.17908e-17
CA16 MX19/M0#g 1#17 3.59789e-18
CA17 A#11 MX32/M0#g 4.96249e-18
CA18 A 1#15 3.88717e-18
CA19 A#12 1#15 1.5765e-17
CA20 A 1#16 2.35681e-17
CA21 A#12 1#17 3.18376e-17
CA22 A#11 1#16 3.03767e-17
CA23 A#12 1#18 1.99451e-17
CA24 A#11 VSS#29 2.58851e-18
CA25 A#12 VSS#26 2.22892e-18
CA26 A VSS#8 1.45979e-18
CA27 A VSS#17 4.23239e-18
CA28 A VSS#29 7.69529e-17
CA29 A#11 MX32/M0#s 1.1069e-17
CA30 A VSS#26 1.14686e-16
CA31 MX21/M0#g VSS#26 4.8201e-18
CA32 MX21/M0#g MX32/M0#s 7.3052e-18
CA33 A MX32/M0#s 1.14737e-17
CA34 A#11 VSS#26 7.59744e-18
CA35 A#12 MX32/M0#s 1.18278e-17
CA36 MX21/M0#g VSS#17 3.64084e-18
CA37 A#11 VDD#7 2.16646e-18
CA38 A VDD 1.54125e-18
CA39 A VDD#7 7.92486e-18
CA40 MX19/M0#g VDD#25 5.21861e-18
CA41 MX19/M0#g VDD#16 5.77573e-18
CA42 MX19/M0#g VDD 1.36142e-17
CA43 A VDD#28 2.949e-17
CA44 MX19/M0#g MX19/M0#s 9.07616e-18
RgA1 MX19/M0#g A#8 586.477966 $L=1.825 $W=0.15
RgA2 A#8 A#9 38.857975 $L=0.1645 $W=0.27
RgA3 A#9 A#10 29.410927 $L=0.1645 $W=0.27
RgA4 A#10 MX21/M0#g 104.477959 $L=0.325 $W=0.15
RfA5 A#11 A#12 38.023529 $L=0.505 $W=0.17
ReA6 A A#13 0.064423 $L=0.134 $W=0.26
RjA7 A#11 A#13 152.000000 $A=0.0289
RiA8 A#9 A#12 15.000000 $A=0.0289
*
*|NET 1 7.96861e-16
*|I (MX32/M0#g MX32/M0 g X 0 0.9050 0.8000)
*|I (MX21/M0#d MX21/M0 d X 0 0.3995 0.8000)
*|I (MX19/M0#d MX19/M0 d X 0 0.3995 3.2800)
*|I (MM0#g MM0 g X 0 0.9050 3.2800)
*|S (1 0.9050 3.2800)
*|S (1#8 0.9050 1.6300)
*|S (1#9 0.9050 1.4650)
*|S (1#10 0.2600 3.3850)
*|S (1#12 0.2600 3.2800)
*|S (1#14 0.2600 0.8000)
*|S (1#15 0.2600 0.7550)
*|S (1#16 0.9050 1.6300)
*|S (1#17 0.2550 1.6300)
*|S (1#18 0.2550 1.6300)
*|S (1#19 0.2550 1.4850)
*|S (1#20 0.2600 0.8995)
*|S (1#21 0.2600 0.7550)
*|S (1#22 0.2550 1.7745)
*|S (1#23 0.2600 3.2400)
*|S (1#24 0.2600 3.3850)
CE1 MX32/M0#g VSS 2.28247e-17
CE2 1#24 VSS 3.89035e-18
CE3 1#21 VSS 3.07189e-17
CE4 1#18 VSS 4.89683e-17
CE5 1#16 VSS 1.94568e-17
CE6 1#17 VSS 2.61779e-17
CE7 1#15 VSS 3.45688e-18
CE8 1 VSS 9.85214e-18
CE9 1#17 VSS#26 3.77885e-18
CE10 1#24 VSS#8 3.75403e-18
CE11 MX32/M0#g VSS#17 3.64084e-18
CE12 1#21 VSS#18 3.45541e-18
CE13 MX32/M0#g VSS#26 2.76742e-18
CE14 1#21 VSS#17 2.31053e-18
CE15 1#18 VSS#26 2.07914e-18
CE16 1#21 MX32/M0#s 7.52585e-18
CE17 1#18 VSS#29 4.46729e-18
CE18 1#21 VSS#26 2.64847e-17
CE19 1#15 VSS#26 5.3781e-18
CE20 1#15 MX32/M0#s 1.89736e-17
CE21 1#16 VSS#29 6.26673e-18
CE22 MX32/M0#g MX32/M0#s 6.23616e-18
CE23 1#15 VSS#18 4.62784e-18
RgE90 1 1#8 511.359100 $L=1.65 $W=0.15
RgE91 1#8 1#9 34.134449 $L=0.1645 $W=0.27
RgE92 1#9 MX32/M0#g 213.731293 $L=0.665 $W=0.15
RfE93 1#10 1#12 7.905882 $L=0.105 $W=0.17
RfE94 1#14 1#15 3.388236 $L=0.045 $W=0.17
RfE95 1#16 1#17 48.941177 $L=0.65 $W=0.17
ReE96 1#18 1#19 0.083049 $L=0.1445 $W=0.23
ReE97 1#19 1#20 0.430419 $L=0.585 $W=0.17
ReE98 1#20 1#21 0.083049 $L=0.1445 $W=0.23
ReE99 1#18 1#22 0.083049 $L=0.1445 $W=0.23
ReE100 1#22 1#23 1.077478 $L=1.465 $W=0.17
ReE101 1#23 1#24 0.083049 $L=0.1445 $W=0.23
RhE102 MX21/M0#d 1#14 15.000000 $A=0.0289
Rh_2_E103 MX19/M0#d 1#12 15.000000 $A=0.0289
RjE104 1#17 1#18 152.000000 $A=0.0289
RjE105 1#15 1#21 152.000000 $A=0.0289
RjE106 1#10 1#24 152.000000 $A=0.0289
RiE107 1#8 1#16 15.000000 $A=0.0289
RmwE108 MM0#g 1 0.001000 $W=1000000
*
*|NET 3 1.29253e-15
*|I (MX34/M0#g MX34/M0 g X 0 2.7150 0.8000)
*|I (MX34/M1#g MX34/M1 g X 0 3.1450 0.8000)
*|I (MX34/M2#g MX34/M2 g X 0 3.5750 0.8000)
*|I (MX34/M3#g MX34/M3 g X 0 4.0050 0.8000)
*|I (MX22/M0#d MX22/M0 d X 0 2.2095 0.8000)
*|I (MX33/M0#g MX33/M0 g X 0 2.7150 3.2400)
*|I (MX33/M1#g MX33/M1 g X 0 3.1450 3.2400)
*|I (MX33/M2#g MX33/M2 g X 0 3.5750 3.2400)
*|I (MX33/M3#g MX33/M3 g X 0 4.0050 3.2400)
*|I (MX20/M0#d MX20/M0 d X 0 2.2095 3.2400)
*|S (3 2.7150 3.2400)
*|S (3#29 4.0050 2.1450)
*|S (3#30 3.5750 2.1450)
*|S (3#31 3.3600 2.1450)
*|S (3#32 3.1450 2.1450)
*|S (3#33 2.7150 2.1450)
*|S (3#34 2.0700 3.3850)
*|S (3#36 2.0700 3.2400)
*|S (3#38 2.0700 0.8000)
*|S (3#39 2.0700 0.7550)
*|S (3#40 3.3600 2.1450)
*|S (3#41 2.0700 2.1450)
*|S (3#42 2.0700 3.3850)
*|S (3#43 2.0700 3.2400)
*|S (3#44 2.0700 2.1450)
*|S (3#45 2.0700 2.0000)
*|S (3#46 2.0700 0.8995)
*|S (3#47 2.0700 0.7550)
CG1 MX20/M0#d VSS 2.90496e-18
CG2 MX33/M2#g VSS 9.5991e-19
CG3 MX34/M3#g VSS 1.66921e-17
CG4 MX34/M2#g VSS 1.55162e-17
CG5 MX34/M1#g VSS 1.52929e-17
CG6 MX34/M0#g VSS 1.59397e-17
CG7 3#47 VSS 1.08392e-17
CG8 3#44 VSS 5.52527e-18
CG9 3#42 VSS 3.69063e-18
CG10 3#40 VSS 2.33109e-17
CG11 3#39 VSS 1.60226e-18
CG12 3#41 VSS 6.78451e-18
CG13 3 VSS 2.75659e-18
CG14 MX34/M2#g MX34/M1#d 6.22723e-18
CG15 MX34/M1#g MX34/M1#d 6.22723e-18
CG16 MX34/M0#g MX34/M0#s 6.21439e-18
CG17 3#39 VSS#13 6.01853e-18
CG18 3#47 VSS#13 5.9851e-18
CG19 MX34/M1#g VSS#12 5.0558e-18
CG20 3#39 VSS#25 4.92387e-18
CG21 MX34/M3#g VSS#25 4.8201e-18
CG22 MX34/M0#g VSS#25 4.8201e-18
CG23 3#44 VSS#7 4.67076e-18
CG24 MX34/M0#g VSS#13 4.29097e-18
CG25 MX34/M2#g VSS#12 4.29097e-18
CG26 MX34/M3#g VSS#11 4.29097e-18
CG27 3#40 VSS#25 3.6682e-18
CG28 3#41 MX34/M0#s 3.50238e-18
CG29 3#40 MX34/M0#s 3.47978e-18
CG30 MX34/M1#g VSS#25 2.7503e-18
CG31 MX34/M2#g VSS#25 2.38568e-18
CG32 MX20/M0#d MX31/M0#g 2.09023e-18
CG33 MX34/M2#g MX34/M3#d 2.03421e-18
CG34 MX33/M3#g VSS#25 1.47449e-18
CG35 3#47 VSS#25 2.43669e-17
CG36 3#40 MX34/M1#d 7.00476e-18
CG37 MX34/M3#g MX34/M3#d 8.2007e-18
CG38 3#39 MX34/M0#s 1.89737e-17
CG39 3#47 MX34/M0#s 7.80451e-18
RgG131 MX33/M3#g 3#29 347.883331 $L=1.095 $W=0.15
RgG132 3#29 3#30 62.011234 $L=0.43 $W=0.27
RgG133 3#30 3#31 36.929379 $L=0.215 $W=0.27
RgG134 3#31 3#32 36.929379 $L=0.215 $W=0.27
RgG135 3#32 3#33 62.011227 $L=0.43 $W=0.27
RgG136 3#33 MX34/M0#g 428.216644 $L=1.345 $W=0.15
RgG137 3#29 MX34/M3#g 428.216644 $L=1.345 $W=0.15
RgG138 3#30 MX34/M2#g 425.659729 $L=1.345 $W=0.15
RgG139 3#30 MX33/M2#g 345.326416 $L=1.095 $W=0.15
RgG140 3#32 MX34/M1#g 425.659729 $L=1.345 $W=0.15
RgG141 3#32 MX33/M1#g 345.326416 $L=1.095 $W=0.15
RgG142 3#33 3 347.883331 $L=1.095 $W=0.15
RfG143 3#34 3#36 10.917646 $L=0.145 $W=0.17
RfG144 3#38 3#39 3.388236 $L=0.045 $W=0.17
RfG145 3#40 3#41 97.129410 $L=1.29 $W=0.17
ReG146 3#42 3#43 0.083049 $L=0.1445 $W=0.23
ReG147 3#43 3#44 0.781850 $L=1.095 $W=0.17
ReG148 3#44 3#45 0.083049 $L=0.1445 $W=0.23
ReG149 3#45 3#46 0.809095 $L=1.1 $W=0.17
ReG150 3#46 3#47 0.083049 $L=0.1445 $W=0.23
RhG151 MX22/M0#d 3#38 15.000000 $A=0.0289
Rh_2_G152 MX20/M0#d 3#36 15.000000 $A=0.0289
RjG153 3#34 3#42 152.000000 $A=0.0289
RjG154 3#41 3#44 152.000000 $A=0.0289
RjG155 3#39 3#47 152.000000 $A=0.0289
RiG156 3#31 3#40 5.000000 $A=0.0867
RmwG157 MX33/M0#g 3 0.001000 $W=1000000
*
*|NET 10 1.17878e-16
*|I (MX32/M0#d MX32/M0 d X 0 0.9805 0.8000)
*|I (MX23/M0#s MX23/M0 s X 0 1.2595 0.8000)
*|S (10 1.1200 0.8000)
CH1 10 VSS 2.02458e-17
CH2 10 VSS#29 1.23865e-18
CH3 10 VSS#26 2.15832e-17
CH4 10 VSS#17 5.94573e-18
CH5 10 MX32/M0#s 1.92755e-17
RmwH158 MX32/M0#d 10 0.001000 $W=1000000
RmwH159 MX23/M0#s 10 0.001000 $W=1000000
*
*|NET 12 1.49941e-16
*|I (MX31/M0#s MX31/M0 s X 0 1.2595 3.2800)
*|I (MM0#d MM0 d X 0 0.9805 3.2800)
*|S (12 1.1200 3.2350)
CH6 12 VSS 1.69379e-17
CH7 12 VSS#29 7.57224e-18
CH8 12 MX31/M0#g 8.17266e-18
CH9 12 VSS#8 1.61633e-17
RmwH160 MX31/M0#s 12 0.001000 $W=1000000
RmwH161 MM0#d 12 0.001000 $W=1000000
*
*|NET VDD 1.54272e-15
*|P (VDD X 0 2.4150 4.1450)
*|I (MX23/M0#g MX23/M0 g X 0 1.3350 0.8000)
*|I (MX33/M0#s MX33/M0 s X 0 2.6395 3.2400)
*|I (MX33/M1#d MX33/M1 d X 0 3.2205 3.2400)
*|I (MX33/M2#s MX33/M2 s X 0 3.4995 3.2400)
*|I (MX33/M3#d MX33/M3 d X 0 4.0805 3.2400)
*|I (MX20/M0#s MX20/M0 s X 0 2.3605 3.2400)
*|I (MX19/M0#s MX19/M0 s X 0 0.5505 3.2800)
*|I (MM0#s MM0 s X 0 0.8295 3.2800)
*|S (VDD#4 1.4250 2.1450)
*|S (VDD#5 1.3350 2.0100)
*|S (VDD#6 1.4250 2.1450)
*|S (VDD#7 0.8400 2.1450)
*|S (VDD#9 4.2200 3.2400)
*|S (VDD#10 4.3675 4.1400)
*|S (VDD#11 3.3600 4.1400)
*|S (VDD#12 2.5000 4.1400)
*|S (VDD#13 2.3000 4.1400)
*|S (VDD#14 2.3000 4.1400)
*|S (VDD#16 0.6900 4.1400)
*|S (VDD#17 0.0000 4.1400)
*|S (VDD#19 3.3600 3.2400)
*|S (VDD#21 2.5000 3.2400)
*|S (VDD#23 0.6900 3.2800)
*|S (VDD#24 2.3000 4.1400)
*|S (VDD#25 0.4625 4.1400)
*|S (VDD#26 0.8400 3.9400)
*|S (VDD#27 0.8400 2.2895)
*|S (VDD#28 0.8400 2.1450)
CB1 MX19/M0#s VSS 3.03061e-18
CB2 MX33/M1#d VSS 1.69808e-18
CB3 MX33/M0#s VSS 3.03652e-19
CB4 MX23/M0#g VSS 2.0174e-17
CB5 VDD#28 VSS 5.88867e-18
CB6 VDD#25 VSS 2.3235e-18
CB7 VDD#24 VSS 3.64499e-18
CB8 VDD#16 VSS 3.76981e-18
CB9 VDD#11 VSS 5.24953e-19
CB10 VDD#17 VSS 8.49653e-19
CB11 VDD#6 VSS 7.55166e-18
CB12 VDD#7 VSS 6.97258e-18
CB13 VDD VSS 3.25925e-18
CB14 VDD#28 12 7.63426e-18
CB15 VDD#7 12 1.70031e-18
CB16 VDD#25 12 1.6158e-17
CB17 VDD#16 12 6.06011e-18
CB18 VDD 12 7.25345e-18
CB19 MX19/M0#s 12 2.60548e-17
CB20 VDD#13 MX20/M0#d 6.0591e-18
CB21 VDD#13 3#42 5.95793e-18
CB22 VDD#24 MX33/M3#g 5.48428e-18
CB23 VDD#24 3 5.48428e-18
CB24 VDD#24 MX20/M0#d 5.45066e-18
CB25 MX33/M0#s 3#41 4.89975e-18
CB26 MX33/M0#s 3#40 4.86813e-18
CB27 VDD#11 MX33/M2#g 4.34129e-18
CB28 VDD#10 MX33/M3#g 4.34129e-18
CB29 VDD#13 3 4.34129e-18
CB30 VDD#24 3#40 4.07097e-18
CB31 VDD#24 3#41 3.43435e-18
CB32 VDD#6 3#44 3.13679e-18
CB33 VDD#11 MX33/M1#g 3.05771e-18
CB34 VDD#24 MX33/M1#g 2.98159e-18
CB35 MX33/M3#d MX33/M2#g 2.90141e-18
CB36 VDD#24 MX33/M2#g 2.5863e-18
CB37 MX33/M1#d MX33/M3#g 1.82912e-18
CB38 MX33/M0#s MX33/M1#g 1.80549e-18
CB39 MX33/M1#d 3 1.7359e-18
CB40 VDD 3#40 2.72855e-17
CB41 MX33/M3#d MX33/M3#g 1.15141e-17
CB42 VDD#6 3#41 8.01665e-18
CB43 MX33/M0#s 3#42 1.04136e-17
CB44 MX33/M0#s 3 8.72526e-18
CB45 VDD MX33/M3#g 1.41665e-17
CB46 VDD MX33/M2#g 1.38611e-17
CB47 VDD MX33/M1#g 1.23455e-17
CB48 MX33/M1#d MX33/M1#g 8.73475e-18
CB49 VDD 3#44 9.06272e-18
CB50 VDD 3#41 1.17806e-17
CB51 MX33/M1#d 3#40 9.13485e-18
CB52 VDD 3 1.17495e-17
CB53 VDD#24 3#42 2.36027e-17
CB54 MX33/M0#s MX20/M0#d 2.76394e-17
CB55 MX33/M1#d MX33/M2#g 8.73475e-18
CB56 VDD#25 MX31/M0#d 4.84409e-18
CB57 VDD#13 2 4.34129e-18
CB58 VDD#13 MX31/M0#d 4.18149e-18
CB59 VDD#13 2#24 3.94728e-18
CB60 VDD#24 MX31/M0#d 2.41746e-18
CB61 VDD 2#21 2.31125e-18
CB62 VDD#24 2#20 2.04393e-18
CB63 VDD#16 2#24 2.00503e-18
CB64 VDD#24 2 5.48428e-18
CB65 MX23/M0#g 2#14 7.73089e-18
CB66 VDD#28 2#24 1.33079e-17
CB67 VDD#25 2#24 3.30485e-17
CB68 VDD#6 2#21 1.19521e-17
CB69 VDD#24 2#24 1.16942e-17
CB70 VDD 2 1.17495e-17
CB71 VDD 2#24 6.08482e-18
CB72 VDD#6 2#20 1.05911e-17
CB73 MX33/M0#s 2 9.23577e-18
CB74 VDD#17 1#24 3.55454e-18
CB75 VDD#28 1#16 3.37721e-18
CB76 VDD#7 1 3.20526e-18
CB77 VDD#16 1#24 2.41749e-18
CB78 VDD#25 1#17 2.32516e-18
CB79 VDD MX19/M0#d 2.08957e-18
CB80 VDD#25 1 1.59757e-18
CB81 VDD#28 MX19/M0#d 1.45924e-18
CB82 VDD#16 MX19/M0#d 1.27465e-18
CB83 VDD#25 MX19/M0#d 9.47335e-18
CB84 VDD#28 1#18 3.58575e-17
CB85 VDD#28 1#24 3.35711e-17
CB86 VDD#17 MX19/M0#d 4.64656e-18
CB87 VDD#7 1#18 7.93001e-18
CB88 VDD 1#24 5.17257e-17
CB89 MX19/M0#s 1 7.75518e-18
CB90 MX19/M0#s MX19/M0#d 2.39631e-17
CB91 VDD 1#18 2.17439e-17
CB92 MX19/M0#s 1#24 8.15811e-18
CB93 VDD#25 1#24 4.56173e-17
CB94 VDD#16 1 4.31255e-18
CB95 VDD 1 7.66001e-18
CB96 VDD#7 1#16 2.07976e-17
CB97 MX33/M0#s Y#18 5.36306e-18
CB98 MX33/M1#d Y#17 5.32959e-18
CB99 MX33/M3#d Y#13 5.31719e-18
CB100 VDD#24 Y#3 5.27101e-18
CB101 VDD#24 Y#9 5.27101e-18
CB102 MX33/M0#s Y#17 4.87048e-18
CB103 VDD#11 Y#20 4.81038e-18
CB104 VDD#11 Y#18 4.61934e-18
CB105 VDD#13 Y#18 3.06012e-18
CB106 VDD#10 Y#20 3.04705e-18
CB107 VDD#13 Y#3 2.44428e-18
CB108 VDD#11 Y#9 2.44428e-18
CB109 VDD#11 Y#3 2.42043e-18
CB110 VDD#10 Y#9 2.42043e-18
CB111 VDD#24 Y#20 4.15347e-17
CB112 MX33/M1#d Y#13 6.07822e-18
CB113 MX33/M3#d Y#20 9.15045e-18
CB114 VDD Y#17 1.13484e-17
CB115 MX33/M1#d Y#20 2.14927e-17
CB116 MX33/M3#d Y#9 2.98667e-17
CB117 VDD Y#13 1.67927e-17
CB118 MX33/M1#d Y#3 2.93255e-17
CB119 VDD Y#3 1.60254e-17
CB120 VDD Y#9 1.84572e-17
CB121 VDD#24 Y#18 3.32551e-17
CB122 MX33/M1#d Y#18 9.16306e-18
CB123 VDD Y 1.5578e-17
CB124 MX33/M1#d Y#9 2.90776e-17
CB125 MX33/M0#s Y#3 2.98669e-17
CB126 VDD#28 VSS#8 7.37135e-18
CB127 VDD#6 VSS#8 6.75418e-18
CB128 VDD#7 VSS#8 6.005e-18
CB129 VDD VSS#29 5.7928e-18
CB130 MX23/M0#g VSS#17 5.74683e-18
CB131 VDD#16 MX31/M0#g 5.03314e-18
CB132 VDD#25 MX31/M0#g 3.81585e-18
CB133 VDD#7 VSS#29 2.35935e-18
CB134 VDD#16 VSS#29 2.33229e-18
CB135 MX19/M0#s MX31/M0#g 1.75348e-18
CB136 VDD#28 MX32/M0#s 1.63643e-18
CB137 MX33/M3#d VSS#25 1.61922e-18
CB138 MX23/M0#g VSS#26 1.5652e-18
CB139 VDD#24 MX34/M3#d 1.49998e-18
CB140 VDD#25 VSS#8 1.42128e-18
CB141 VDD VSS#8 8.37164e-18
CB142 VDD#28 VSS#29 8.99929e-17
CB143 VDD#6 VSS#29 2.55016e-17
CB144 VDD MX31/M0#g 1.42169e-17
CB145 VDD#6 VSS#7 9.62422e-18
CB146 VDD#25 VSS#29 1.08492e-17
CB147 VDD VSS#7 9.07319e-18
RgB9 VDD#4 VDD#5 31.545456 $L=0.1345 $W=0.33
RgB10 VDD#5 MX23/M0#g 388.849854 $L=1.21 $W=0.15
RfB11 VDD#6 VDD#7 44.047058 $L=0.585 $W=0.17
RfB12 VDD#9 VDD#10 67.786148 $L=0.9 $W=0.17
RfB13 VDD#10 VDD#11 43.418163 $L=1.0075 $W=0.25
RfB14 VDD#11 VDD#12 43.481621 $L=0.86 $W=0.25
RfB15 VDD#12 VDD#13 9.964811 $L=0.2 $W=0.25
RfB16 VDD#13 VDD#16 82.156807 $L=1.61 $W=0.25
RfB17 VDD#16 VDD#17 35.052811 $L=0.69 $W=0.25
RfB18 VDD#11 VDD#19 61.156857 $L=0.9 $W=0.17
RfB19 VDD#12 VDD#21 61.156857 $L=0.9 $W=0.17
RfB20 VDD#16 VDD#23 58.145092 $L=0.86 $W=0.17
ReB21 VDD VDD#24 0.035937 $L=0.115 $W=0.4
ReB22 VDD#24 VDD#25 0.472264 $L=1.8375 $W=0.4
ReB23 VDD#25 VDD#26 0.042667 $L=0.1995 $W=0.925
ReB24 VDD#26 VDD#27 1.213405 $L=1.65 $W=0.17
ReB25 VDD#27 VDD#28 0.083049 $L=0.1445 $W=0.23
Rh_1_B26 VDD#14 VDD#13 1.666667 $A=0.2601
Rh_2_B27 MX33/M3#d VDD#9 15.000000 $A=0.0289
Rh_2_B28 MX33/M1#d VDD#19 15.000000 $A=0.0289
Rh_2_B29 MX33/M0#s VDD#21 15.000000 $A=0.0289
Rh_2_B30 MX19/M0#s VDD#23 15.000000 $A=0.0289
RjB31 VDD#13 VDD#24 16.888889 $A=0.2601
RjB32 VDD#7 VDD#28 152.000000 $A=0.0289
RiB33 VDD#4 VDD#6 15.000000 $A=0.0289
RmwB34 MX33/M2#s MX33/M1#d 0.001000 $W=1000000
RmwB35 MX20/M0#s MX33/M0#s 0.001000 $W=1000000
RmwB36 MM0#s MX19/M0#s 0.001000 $W=1000000
*
*Instance Section
*
MX34/M0	MX34/M0#d	MX34/M0#g	MX34/M0#s	VSS	nfet_01v8
+ L=1.5e-07	W=4.2e-07
MX34/M1	MX34/M1#d	MX34/M1#g	MX34/M1#s	VSS	nfet_01v8
+ L=1.5e-07	W=4.2e-07
MX34/M2	MX34/M2#d	MX34/M2#g	MX34/M2#s	VSS	nfet_01v8
+ L=1.5e-07	W=4.2e-07
MX34/M3	MX34/M3#d	MX34/M3#g	MX34/M3#s	VSS	nfet_01v8
+ L=1.5e-07	W=4.2e-07
MX32/M0	MX32/M0#d	MX32/M0#g	MX32/M0#s	VSS	nfet_01v8
+ L=1.5e-07	W=4.2e-07
MX23/M0	MX23/M0#d	MX23/M0#g	MX23/M0#s	VSS	nfet_01v8
+ L=1.5e-07	W=4.2e-07
MX22/M0	MX22/M0#d	MX22/M0#g	MX22/M0#s	VSS	nfet_01v8
+ L=1.5e-07	W=4.2e-07
MX21/M0	MX21/M0#d	MX21/M0#g	MX21/M0#s	VSS	nfet_01v8
+ L=1.5e-07	W=4.2e-07
MX33/M0	MX33/M0#d	MX33/M0#g	MX33/M0#s	VDD	pfet_01v8_hvt
+ L=1.5e-07	W=6.2e-07
MX33/M1	MX33/M1#d	MX33/M1#g	MX33/M1#s	VDD	pfet_01v8_hvt
+ L=1.5e-07	W=6.2e-07
MX33/M2	MX33/M2#d	MX33/M2#g	MX33/M2#s	VDD	pfet_01v8_hvt
+ L=1.5e-07	W=6.2e-07
MX33/M3	MX33/M3#d	MX33/M3#g	MX33/M3#s	VDD	pfet_01v8_hvt
+ L=1.5e-07	W=6.2e-07
MX31/M0	MX31/M0#d	MX31/M0#g	MX31/M0#s	VDD	pfet_01v8_hvt
+ L=1.5e-07	W=5.4e-07
MX20/M0	MX20/M0#d	MX20/M0#g	MX20/M0#s	VDD	pfet_01v8_hvt
+ L=1.5e-07	W=6.2e-07
MX19/M0	MX19/M0#d	MX19/M0#g	MX19/M0#s	VDD	pfet_01v8_hvt
+ L=1.5e-07	W=5.4e-07
MM0	MM0#d	MM0#g	MM0#s	VDD	pfet_01v8_hvt	L=1.5e-07
+ W=5.4e-07
.ENDS
