*
*|DSPF 1.5
*
*|DATE "Fri Feb 28 13:21:02 2025"
*|VENDOR "Cadence Design Systems"
*|PROGRAM "Cadence Quantus Extraction"
*|VERSION "22.1.0-p089 Linux 64 bit - (Thu Jan 19 11:47:08 PST 2023)"
*|DESIGN "DLY4X4_LP"
*|DIVIDER /
*|DELIMITER #
*|DeviceFingerDelim "@"
*|BUSBIT []
*|GLOBAL_TEMPERATURE 25
*|OPERATING_TEMPERATURE 25
** QRC_TECH_DIR /vols/wfo_devel/projects/reference_SKY130/tech/sky130_release_0.0.4/quantus/extraction/typical 
** HIERARCHICAL_SPLIT_PINS_DELIMITER '%'
** caps2d version: 10
*
.SUBCKT  DLY4X4_LP A VDD VSS Y
*
*Net Section
*
*|GROUND_NET VSS
*
*|NET Y 1.07659e-15
*|P (Y X 0 10.5950 2.0350)
*|I (MX92/M0#d MX92/M0 d X 0 9.5105 0.8000)
*|I (MX92/M1#s MX92/M1 s X 0 9.7895 0.8000)
*|I (MX92/M2#d MX92/M2 d X 0 10.3705 0.8000)
*|I (MX92/M3#s MX92/M3 s X 0 10.6495 0.8000)
*|I (MX106/M0#d MX106/M0 d X 0 9.5105 3.2400)
*|I (MX106/M1#s MX106/M1 s X 0 9.7895 3.2400)
*|I (MX106/M2#d MX106/M2 d X 0 10.3705 3.2400)
*|I (MX106/M3#s MX106/M3 s X 0 10.6495 3.2400)
*|S (Y#2 9.6500 3.2400)
*|S (Y#3 9.6500 2.9450)
*|S (Y#4 9.6500 1.0050)
*|S (Y#6 9.6500 0.8000)
*|S (Y#8 10.5100 3.2400)
*|S (Y#9 10.5100 2.9450)
*|S (Y#10 10.5100 1.0050)
*|S (Y#12 10.5100 0.8000)
*|S (Y#13 10.5525 1.8850)
*|S (Y#14 9.6500 1.8850)
*|S (Y#15 9.6500 1.0050)
*|S (Y#16 10.5100 2.9450)
*|S (Y#17 10.5100 1.0050)
*|S (Y#18 9.6500 2.9450)
CD1 MX92/M2#d VSS 1.94119e-17
CD2 MX92/M0#d VSS 1.40316e-17
CD3 Y#18 VSS 3.12961e-18
CD4 Y#17 VSS 3.28837e-17
CD5 Y#16 VSS 3.33064e-19
CD6 Y#15 VSS 1.13931e-17
CD7 Y#14 VSS 1.15086e-17
CD8 Y#3 VSS 1.98158e-18
CD9 Y#9 VSS 2.42043e-18
CD10 Y VSS 2.6639e-17
CD11 MX92/M0#d MX84/M0#d 5.33791e-18
CD12 Y#17 MX92/M3#g 4.89375e-18
CD13 Y#15 MX84/M0#d 4.21121e-18
CD14 Y#14 MX106/M1#g 3.6165e-18
CD15 Y MX106/M2#g 3.6165e-18
CD16 MX92/M0#d 35#44 3.59536e-18
CD17 Y#3 35#42 3.46228e-18
CD18 Y#14 MX92/M1#g 2.70006e-18
CD19 Y MX92/M2#g 2.70006e-18
CD20 Y#16 MX106/M2#g 2.34088e-18
CD21 Y#18 35 2.28196e-18
CD22 Y#18 MX106/M1#g 2.14874e-18
CD23 Y#3 MX106/M2#g 1.84979e-18
CD24 Y#9 MX106/M1#g 1.84979e-18
CD25 Y#17 MX92/M2#g 1.67206e-18
CD26 Y#15 MX92/M1#g 1.53482e-18
CD27 Y#15 MX92/M0#g 1.53482e-18
CD28 Y#3 35#40 6.84332e-18
CD29 Y#3 35 8.75846e-18
CD30 Y 35#40 4.80569e-17
CD31 MX92/M0#d 35#40 6.68794e-18
CD32 MX92/M2#d MX92/M2#g 6.23699e-18
CD33 Y#9 MX106/M2#g 8.75846e-18
CD34 Y#9 MX106/M3#g 9.82186e-18
CD35 Y#18 35#42 3.85317e-17
CD36 MX92/M0#d MX92/M1#g 6.23699e-18
CD37 Y#3 MX106/M1#g 8.75846e-18
CD38 Y#15 35#44 3.43306e-17
CD39 Y#14 35#43 2.73566e-17
CD40 Y#16 MX106/M3#g 6.82832e-18
CD41 MX92/M2#d MX92/M3#g 7.00915e-18
CD42 Y#9 35#40 6.84332e-18
CD43 Y#14 35#40 4.99895e-17
CD44 Y#3 35#36 6.29395e-18
CD45 MX92/M0#d MX92/M0#g 6.23699e-18
CD46 MX92/M2#d 35#40 6.68794e-18
CD47 Y#18 35#36 6.61881e-18
CD48 Y#18 8#18 2.95889e-18
CD49 Y 8#16 2.48328e-18
CD50 Y#14 8#16 1.13538e-17
CD51 Y#17 VSS#53 4.04856e-18
CD52 Y#14 MX92/M1#d 3.76976e-18
CD53 Y MX92/M1#d 3.74544e-18
CD54 Y#17 VSS#54 2.77186e-18
CD55 Y#15 VSS#55 2.77186e-18
CD56 Y#15 VSS#54 2.75978e-18
CD57 MX92/M2#d VSS#54 2.42318e-18
CD58 MX92/M0#d VSS#55 2.42318e-18
CD59 MX92/M0#d VSS#54 2.39954e-18
CD60 MX92/M0#d MX92/M1#d 2.30275e-17
CD61 Y#15 VSS#79 2.15763e-17
CD62 MX92/M2#d MX92/M1#d 2.30275e-17
CD63 MX92/M2#d MX92/M3#d 2.28901e-17
CD64 MX92/M0#d MX92/M0#s 2.30275e-17
CD65 Y#15 MX92/M0#s 7.14627e-18
CD66 Y#15 MX92/M1#d 7.14627e-18
CD67 Y#17 MX92/M3#d 1.14992e-17
CD68 Y#17 MX92/M1#d 7.88058e-18
CD69 MX92/M0#d VSS#79 5.71812e-18
CD70 MX92/M2#d VSS#79 5.71812e-18
CD71 Y#17 VSS#79 2.68887e-17
RfD144 Y#2 Y#3 22.211765 $L=0.295 $W=0.17
RfD145 Y#4 Y#6 15.435293 $L=0.205 $W=0.17
RfD146 Y#8 Y#9 22.211765 $L=0.295 $W=0.17
RfD147 Y#10 Y#12 15.435293 $L=0.205 $W=0.17
ReD148 Y Y#13 0.056523 $L=0.15 $W=0.315
ReD149 Y#13 Y#14 0.378233 $L=0.9025 $W=0.23
ReD150 Y#14 Y#15 0.473476 $L=0.88 $W=0.23
ReD151 Y Y#16 0.361111 $L=0.91 $W=0.315
ReD152 Y#13 Y#17 0.346206 $L=0.88 $W=0.315
ReD153 Y#14 Y#18 0.571302 $L=1.06 $W=0.23
RhD154 MX92/M0#d Y#6 15.000000 $A=0.0289
RhD155 MX92/M2#d Y#12 15.000000 $A=0.0289
Rh_2_D156 MX106/M0#d Y#2 15.000000 $A=0.0289
Rh_2_D157 MX106/M2#d Y#8 15.000000 $A=0.0289
RjD158 Y#4 Y#15 76.000000 $A=0.0578
RjD159 Y#9 Y#16 76.000000 $A=0.0578
RjD160 Y#10 Y#17 76.000000 $A=0.0578
RjD161 Y#3 Y#18 76.000000 $A=0.0578
RmwD162 MX92/M1#s MX92/M0#d 0.001000 $W=1000000
RmwD163 MX92/M3#s MX92/M2#d 0.001000 $W=1000000
RmwD164 MX106/M1#s MX106/M0#d 0.001000 $W=1000000
RmwD165 MX106/M3#s MX106/M2#d 0.001000 $W=1000000
*
*|NET 5 9.51111e-16
*|I (MX87/M0#d MX87/M0 d X 0 4.4495 0.8000)
*|I (MX81/M0#g MX81/M0 g X 0 5.3850 0.8000)
*|I (MX99/M0#g MX99/M0 g X 0 5.3850 3.2800)
*|I (MX95/M0#d MX95/M0 d X 0 4.4495 3.2800)
*|S (5 5.3850 3.2800)
*|S (5#8 5.4150 1.7950)
*|S (5#9 5.4150 1.6300)
*|S (5#11 4.3100 3.2800)
*|S (5#12 4.3100 3.1750)
*|S (5#13 4.3100 0.8500)
*|S (5#15 4.3100 0.8000)
*|S (5#16 5.4150 1.7950)
*|S (5#17 4.3100 1.7950)
*|S (5#18 4.3100 3.1750)
*|S (5#19 4.3100 1.7950)
*|S (5#20 4.3100 0.8500)
CI1 MX81/M0#g VSS 1.91164e-17
CI2 MX87/M0#d VSS 5.10336e-18
CI3 5#20 VSS 1.17182e-17
CI4 5#19 VSS 9.15265e-18
CI5 5#18 VSS 3.94483e-18
CI6 5#16 VSS 2.15933e-17
CI7 5#17 VSS 2.36573e-17
CI8 5#12 VSS 2.37433e-18
CI9 5 VSS 8.19625e-18
CI10 MX87/M0#d 51 1.85185e-17
CI11 5#12 53 2.64474e-17
CI12 5#20 51 7.2394e-18
CI13 5 53 1.63687e-18
CI14 MX81/M0#g 51 1.31748e-18
CI15 5#18 53 6.74933e-18
CI16 5#16 6#19 4.67558e-18
CI17 5 6#12 1.43725e-18
CI18 5#20 VSS#64 4.59615e-18
CI19 MX81/M0#g VSS#63 3.64084e-18
CI20 MX87/M0#d VSS#81 3.40569e-18
CI21 5 VSS#82 2.38697e-18
CI22 5#12 MX94/M0#g 2.01122e-18
CI23 5#18 MX95/M0#g 1.64315e-18
CI24 5#20 MX104/M0#s 1.52116e-18
CI25 5#16 VSS#80 1.22712e-18
CI26 5#18 MX94/M0#g 1.03813e-18
CI27 5#20 VSS#80 1.38022e-17
CI28 5#20 VSS#81 1.26606e-17
CI29 5#16 VSS#46 8.69267e-18
CI30 5#12 VSS#47 1.49029e-17
CI31 MX81/M0#g MX104/M0#s 7.15597e-18
CI32 5#16 VSS#82 3.52403e-17
CI33 5 VSS#46 5.91122e-18
CI34 5#18 VSS#82 6.2808e-18
CI35 5#18 VSS#47 3.63689e-17
CI36 MX87/M0#d VSS#64 6.17089e-18
CI37 5#12 MX95/M0#g 7.80226e-18
CI38 5#19 VSS#82 2.22952e-17
RgI226 5 5#8 453.615540 $L=1.485 $W=0.15
RgI227 5#8 5#9 34.134449 $L=0.1645 $W=0.27
RgI228 5#9 MX81/M0#g 266.751282 $L=0.83 $W=0.15
RfI229 5#11 5#12 7.905882 $L=0.105 $W=0.17
RfI230 5#13 5#15 3.764706 $L=0.05 $W=0.17
RfI231 5#16 5#17 83.199997 $L=1.105 $W=0.17
ReI232 5#18 5#19 0.750000 $L=1.38 $W=0.23
ReI233 5#19 5#20 0.513587 $L=0.945 $W=0.23
RhI234 MX87/M0#d 5#15 15.000000 $A=0.0289
Rh_2_I235 MX95/M0#d 5#11 15.000000 $A=0.0289
RjI236 5#12 5#18 152.000000 $A=0.0289
RjI237 5#17 5#19 152.000000 $A=0.0289
RjI238 5#13 5#20 152.000000 $A=0.0289
RiI239 5#8 5#16 15.000000 $A=0.0289
RmwI240 MX99/M0#g 5 0.001000 $W=1000000
*
*|NET 8 9.02767e-16
*|I (MX91/M0#d MX91/M0 d X 0 8.1305 0.8000)
*|I (MX84/M0#g MX84/M0 g X 0 9.0050 0.8000)
*|I (MX98/M0#d MX98/M0 d X 0 8.1305 3.2800)
*|I (MX75/M0#g MX75/M0 g X 0 9.0050 3.2400)
*|S (8 9.0050 3.2400)
*|S (8#8 9.0050 1.6300)
*|S (8#9 9.0050 1.4650)
*|S (8#11 8.2700 3.2800)
*|S (8#12 8.2700 3.1750)
*|S (8#13 8.2700 0.8500)
*|S (8#15 8.2700 0.8000)
*|S (8#16 9.0050 1.6300)
*|S (8#17 8.2700 1.6300)
*|S (8#18 8.2700 3.1750)
*|S (8#19 8.2700 1.6300)
*|S (8#20 8.2700 0.8500)
CL1 MX98/M0#d VSS 6.7281e-21
CL2 MX84/M0#g VSS 1.8497e-17
CL3 MX91/M0#d VSS 3.42959e-18
CL4 8#20 VSS 1.16058e-17
CL5 8#19 VSS 3.00969e-17
CL6 8#18 VSS 6.30674e-18
CL7 8#16 VSS 1.40363e-17
CL8 8#17 VSS 2.46727e-17
CL9 8#12 VSS 1.93226e-18
CL10 8 VSS 3.9759e-18
CL11 MX91/M0#d 63 1.88146e-17
CL12 8#18 65 6.74933e-18
CL13 8#20 63 6.82136e-18
CL14 8#12 65 2.64474e-17
CL15 8#19 35#42 4.27227e-18
CL16 8 35#41 4.21245e-18
CL17 8#12 35#42 3.25145e-18
CL18 8#19 MX84/M0#d 2.41462e-18
CL19 8#16 MX84/M0#d 1.75458e-17
CL20 8#19 35#43 5.74922e-17
CL21 8#16 35#41 4.40619e-17
CL22 8#18 35#36 1.26562e-17
CL23 8 35#36 1.04341e-17
CL24 8#20 35#44 3.87654e-17
CL25 8#19 35#44 2.44635e-17
CL26 8#16 35#44 1.77998e-17
CL27 8#16 35#43 1.55899e-17
CL28 MX91/M0#d MX84/M0#d 1.66758e-17
CL29 MX84/M0#g MX84/M0#d 7.12693e-18
CL30 8#19 35#41 8.21897e-18
CL31 8#20 MX84/M0#d 7.54087e-18
CL32 MX91/M0#d 35#44 5.03163e-18
CL33 8#18 35#42 6.924e-17
CL34 8#12 35#36 2.06651e-17
CL35 8#17 35#41 7.36019e-18
CL36 MX84/M0#g VSS#55 4.29097e-18
CL37 MX91/M0#d VSS#62 3.97407e-18
CL38 8#16 VSS#79 3.70538e-18
CL39 MX91/M0#d VSS#55 3.24939e-18
CL40 8#20 MX105/M0#s 3.01404e-18
CL41 8#17 VSS#43 2.60238e-18
CL42 8#20 VSS#55 2.50328e-18
CL43 8#20 VSS#62 2.47751e-18
CL44 MX91/M0#d VSS#79 5.45834e-18
CL45 8#18 VSS#43 3.55228e-17
CL46 MX84/M0#g MX92/M0#s 7.57466e-18
CL47 MX84/M0#g VSS#79 4.8201e-18
CL48 8#16 MX92/M0#s 4.5641e-18
CL49 8#20 VSS#79 1.74471e-17
CL50 8#12 MX98/M0#g 7.80226e-18
CL51 8#17 VSS#79 6.03584e-18
CL52 8#12 VSS#43 5.88905e-18
RgL271 8 8#8 498.505737 $L=1.61 $W=0.15
RgL272 8#8 8#9 34.134449 $L=0.1645 $W=0.27
RgL273 8#9 MX84/M0#g 213.731293 $L=0.665 $W=0.15
RfL274 8#11 8#12 7.905882 $L=0.105 $W=0.17
RfL275 8#13 8#15 3.764706 $L=0.05 $W=0.17
RfL276 8#16 8#17 55.341179 $L=0.735 $W=0.17
ReL277 8#18 8#19 0.839674 $L=1.545 $W=0.23
ReL278 8#19 8#20 0.423913 $L=0.78 $W=0.23
RhL279 MX91/M0#d 8#15 15.000000 $A=0.0289
Rh_2_L280 MX98/M0#d 8#11 15.000000 $A=0.0289
RjL281 8#12 8#18 152.000000 $A=0.0289
RjL282 8#17 8#19 152.000000 $A=0.0289
RjL283 8#13 8#20 152.000000 $A=0.0289
RiL284 8#8 8#16 15.000000 $A=0.0289
RmwL285 MX75/M0#g 8 0.001000 $W=1000000
*
*|NET 2 1.025e-15
*|I (MX85/M0#d MX85/M0 d X 0 1.4105 0.8000)
*|I (MX80/M0#g MX80/M0 g X 0 2.7150 0.8000)
*|I (MX93/M0#d MX93/M0 d X 0 1.4105 3.2800)
*|I (MM0#g MM0 g X 0 2.7150 3.2800)
*|S (2 2.7150 3.2800)
*|S (2#8 2.6850 2.1450)
*|S (2#9 2.6850 1.9800)
*|S (2#11 1.5500 3.2800)
*|S (2#12 1.5500 3.1750)
*|S (2#13 1.5500 0.8500)
*|S (2#15 1.5500 0.8000)
*|S (2#16 2.6850 2.1450)
*|S (2#17 1.5500 2.1450)
*|S (2#18 1.5500 3.1750)
*|S (2#19 1.5500 2.1450)
*|S (2#20 1.5500 0.8500)
CF1 MX80/M0#g VSS 2.47578e-17
CF2 MX85/M0#d VSS 2.51886e-18
CF3 2#20 VSS 7.78459e-18
CF4 2#19 VSS 1.18445e-17
CF5 2#18 VSS 3.87668e-18
CF6 2#16 VSS 1.16245e-17
CF7 2#17 VSS 9.54384e-18
CF8 2#12 VSS 1.43725e-18
CF9 2 VSS 1.20642e-17
CF10 2#18 41 4.889e-18
CF11 2#20 39 7.29102e-18
CF12 MX85/M0#d 39 1.93352e-17
CF13 2#12 41 2.51005e-17
CF14 MX85/M0#d 3#20 4.58429e-18
CF15 2#20 MX89/M0#d 4.58429e-18
CF16 2#12 3#18 4.54708e-18
CF17 2#18 3#12 3.70973e-18
CF18 MX80/M0#g 3#16 1.70614e-18
CF19 2#16 3#19 1.39309e-17
CF20 2#17 3#17 2.07168e-17
CF21 2#20 3#19 1.29425e-17
CF22 2#19 3#18 1.22702e-17
CF23 2#17 3#19 1.38601e-17
CF24 2#12 3#12 1.77572e-17
CF25 2#16 3#17 3.85532e-17
CF26 2#20 3#20 4.40366e-17
CF27 2#19 3#19 7.38868e-17
CF28 2#18 3#18 4.58939e-17
CF29 2#16 3#16 2.4604e-17
CF30 2#19 3#17 8.08811e-18
CF31 MX85/M0#d MX89/M0#d 1.39305e-17
CF32 MX80/M0#g VSS#81 4.8201e-18
CF33 2#20 VSS#67 4.60773e-18
CF34 MX80/M0#g VSS#66 3.62458e-18
CF35 2#12 MX101/M0#g 2.01122e-18
CF36 2#16 MX101/M0#g 1.66285e-18
CF37 2#17 VSS#81 1.60557e-18
CF38 2#20 VSS#81 2.07771e-17
CF39 2#18 VSS#50 1.77307e-17
CF40 2#16 VSS#49 3.61156e-17
CF41 MX85/M0#d VSS#67 7.24683e-18
CF42 MX80/M0#g MX103/M0#s 7.15597e-18
CF43 2#12 VSS#50 1.49029e-17
CF44 2#19 VSS#50 1.74266e-17
CF45 2#17 VSS#49 1.22574e-17
CF46 2 VSS#49 6.79518e-18
CF47 2#17 VSS#50 2.89825e-17
CF48 2#12 MX93/M0#g 7.80226e-18
CF49 MX85/M0#d VSS#81 5.3592e-18
RgF181 2 2#8 345.872406 $L=1.135 $W=0.15
RgF182 2#8 2#9 34.134449 $L=0.1645 $W=0.27
RgF183 2#9 MX80/M0#g 379.217957 $L=1.18 $W=0.15
RfF184 2#11 2#12 7.905882 $L=0.105 $W=0.17
RfF185 2#13 2#15 3.764706 $L=0.05 $W=0.17
RfF186 2#16 2#17 85.458824 $L=1.135 $W=0.17
ReF187 2#18 2#19 0.559783 $L=1.03 $W=0.23
ReF188 2#19 2#20 0.703804 $L=1.295 $W=0.23
RhF189 MX85/M0#d 2#15 15.000000 $A=0.0289
Rh_2_F190 MX93/M0#d 2#11 15.000000 $A=0.0289
RjF191 2#12 2#18 152.000000 $A=0.0289
RjF192 2#17 2#19 152.000000 $A=0.0289
RjF193 2#13 2#20 152.000000 $A=0.0289
RiF194 2#8 2#16 15.000000 $A=0.0289
RmwF195 MM0#g 2 0.001000 $W=1000000
*
*|NET 35 1.31894e-15
*|I (MX92/M0#g MX92/M0 g X 0 9.4350 0.8000)
*|I (MX92/M1#g MX92/M1 g X 0 9.8650 0.8000)
*|I (MX92/M2#g MX92/M2 g X 0 10.2950 0.8000)
*|I (MX92/M3#g MX92/M3 g X 0 10.7250 0.8000)
*|I (MX84/M0#d MX84/M0 d X 0 8.9295 0.8000)
*|I (MX106/M0#g MX106/M0 g X 0 9.4350 3.2400)
*|I (MX106/M1#g MX106/M1 g X 0 9.8650 3.2400)
*|I (MX106/M2#g MX106/M2 g X 0 10.2950 3.2400)
*|I (MX106/M3#g MX106/M3 g X 0 10.7250 3.2400)
*|I (MX75/M0#d MX75/M0 d X 0 8.9295 3.2400)
*|S (35 9.4350 3.2400)
*|S (35#29 10.7250 1.9700)
*|S (35#30 10.2950 1.9700)
*|S (35#31 10.0800 1.9700)
*|S (35#32 9.8650 1.9700)
*|S (35#33 9.4350 1.9700)
*|S (35#35 8.7900 3.2400)
*|S (35#36 8.7900 2.9100)
*|S (35#37 8.7900 1.0050)
*|S (35#39 8.7900 0.8000)
*|S (35#40 10.0800 1.9700)
*|S (35#41 8.7900 1.9700)
*|S (35#42 8.7900 2.9100)
*|S (35#43 8.7900 1.9700)
*|S (35#44 8.7900 1.0050)
CM1 MX106/M3#g VSS 8.1097e-19
CM2 MX106/M2#g VSS 9.53504e-19
CM3 MX106/M1#g VSS 2.9589e-18
CM4 MX84/M0#d VSS 1.26839e-17
CM5 MX92/M3#g VSS 1.47726e-17
CM6 MX92/M2#g VSS 1.09696e-17
CM7 MX92/M1#g VSS 1.24568e-17
CM8 MX92/M0#g VSS 1.36253e-17
CM9 35#44 VSS 1.22937e-17
CM10 35#43 VSS 3.71626e-18
CM11 35#42 VSS 1.60823e-18
CM12 35#40 VSS 4.33058e-17
CM13 35#41 VSS 2.12535e-17
CM14 35#36 VSS 2.39961e-18
CM15 35 VSS 3.47989e-18
CM16 MX84/M0#d VSS#55 6.0875e-18
CM17 MX84/M0#d VSS#79 5.58537e-18
CM18 35#44 VSS#55 5.54372e-18
CM19 35#40 VSS#79 5.5099e-18
CM20 35#36 VSS#43 4.93844e-18
CM21 MX92/M0#g VSS#79 4.8201e-18
CM22 MX92/M2#g VSS#54 4.29097e-18
CM23 MX92/M1#g VSS#54 4.29097e-18
CM24 MX92/M3#g VSS#53 4.29097e-18
CM25 MX92/M0#g VSS#55 4.29097e-18
CM26 35#40 MX92/M0#s 4.05427e-18
CM27 MX92/M3#g VSS#79 3.53166e-18
CM28 MX92/M2#g VSS#79 3.117e-18
CM29 MX92/M1#g VSS#79 3.117e-18
CM30 35#42 VSS#43 3.07519e-18
CM31 35#40 MX92/M1#d 2.45856e-18
CM32 MX92/M3#g MX92/M1#d 2.32459e-18
CM33 35#36 MX98/M0#g 2.30138e-18
CM34 MX92/M2#g MX92/M3#d 1.52849e-18
CM35 MX92/M0#g MX92/M1#d 1.48714e-18
CM36 MX84/M0#d MX92/M0#s 2.0759e-17
CM37 MX92/M1#g MX92/M1#d 7.15597e-18
CM38 35#44 VSS#79 2.15763e-17
CM39 MX92/M0#g MX92/M0#s 7.15597e-18
CM40 MX92/M3#g MX92/M3#d 9.44324e-18
CM41 MX92/M2#g MX92/M1#d 7.15597e-18
CM42 35#44 MX92/M0#s 6.86782e-18
RgM286 MX106/M3#g 35#29 404.116638 $L=1.27 $W=0.15
RgM287 35#29 35#30 62.011234 $L=0.43 $W=0.27
RgM288 35#30 35#31 36.929379 $L=0.215 $W=0.27
RgM289 35#31 35#32 36.929379 $L=0.215 $W=0.27
RgM290 35#32 35#33 62.011227 $L=0.43 $W=0.27
RgM291 35#33 MX92/M0#g 371.983307 $L=1.17 $W=0.15
RgM292 35#29 MX92/M3#g 371.983307 $L=1.17 $W=0.15
RgM293 35#30 MX92/M2#g 369.426422 $L=1.17 $W=0.15
RgM294 35#30 MX106/M2#g 401.559753 $L=1.27 $W=0.15
RgM295 35#32 MX92/M1#g 369.426422 $L=1.17 $W=0.15
RgM296 35#32 MX106/M1#g 401.559753 $L=1.27 $W=0.15
RgM297 35#33 35 404.116638 $L=1.27 $W=0.15
RfM298 35#35 35#36 24.847057 $L=0.33 $W=0.17
RfM299 35#37 35#39 15.435293 $L=0.205 $W=0.17
RfM300 35#40 35#41 97.129410 $L=1.29 $W=0.17
ReM301 35#42 35#43 0.510870 $L=0.94 $W=0.23
ReM302 35#43 35#44 0.524457 $L=0.965 $W=0.23
RhM303 MX84/M0#d 35#39 15.000000 $A=0.0289
Rh_2_M304 MX75/M0#d 35#35 15.000000 $A=0.0289
RjM305 35#36 35#42 76.000000 $A=0.0578
RjM306 35#41 35#43 152.000000 $A=0.0289
RjM307 35#37 35#44 76.000000 $A=0.0578
RiM308 35#31 35#40 5.000000 $A=0.0867
RmwM309 MX106/M0#g 35 0.001000 $W=1000000
*
*|NET 4 1.06419e-15
*|I (MX104/M0#g MX104/M0 g X 0 4.9550 0.8000)
*|I (MX86/M0#d MX86/M0 d X 0 3.6505 0.8000)
*|I (MX94/M0#d MX94/M0 d X 0 3.6505 3.2800)
*|I (MX78/M0#g MX78/M0 g X 0 4.9550 3.2800)
*|S (4 4.9550 3.2800)
*|S (4#8 4.9250 2.1450)
*|S (4#9 4.9250 1.9800)
*|S (4#11 3.7900 3.2800)
*|S (4#12 3.7900 3.1750)
*|S (4#13 3.7900 0.8500)
*|S (4#15 3.7900 0.8000)
*|S (4#16 4.9250 2.1450)
*|S (4#17 3.7900 2.1450)
*|S (4#18 3.7900 3.1750)
*|S (4#19 3.7900 2.1450)
*|S (4#20 3.7900 0.8500)
CH1 MX86/M0#d VSS 4.06039e-18
CH2 MX104/M0#g VSS 2.92849e-17
CH3 4#20 VSS 9.59876e-18
CH4 4#19 VSS 9.38627e-18
CH5 4#18 VSS 4.06906e-18
CH6 4#16 VSS 1.16245e-17
CH7 4#17 VSS 1.15435e-17
CH8 4 VSS 1.23583e-17
CH9 MX86/M0#d 47 1.93352e-17
CH10 4#18 49 4.05078e-18
CH11 4#20 47 6.82136e-18
CH12 4#12 49 2.3998e-17
CH13 MX86/M0#d 5#20 4.58429e-18
CH14 4#12 5#18 4.54708e-18
CH15 4#20 MX87/M0#d 4.04142e-18
CH16 4#18 5#12 3.59437e-18
CH17 MX104/M0#g 5#16 1.67889e-18
CH18 4#19 5#18 1.23892e-17
CH19 4#19 5#19 7.54467e-17
CH20 4#20 5#19 1.29425e-17
CH21 4#17 5#17 2.07168e-17
CH22 4#20 5#20 4.31744e-17
CH23 4#16 5#19 1.39309e-17
CH24 4#12 5#12 1.68524e-17
CH25 MX86/M0#d MX87/M0#d 1.39305e-17
CH26 4#17 5#19 1.38601e-17
CH27 4#16 5#16 2.4604e-17
CH28 4#16 5#17 3.85532e-17
CH29 4#19 5#17 6.36757e-18
CH30 4#18 5#18 4.53392e-17
CH31 4#20 VSS#64 4.60773e-18
CH32 MX104/M0#g VSS#63 3.64084e-18
CH33 4#20 MX103/M0#s 3.01404e-18
CH34 4#12 MX95/M0#g 2.01122e-18
CH35 4#16 MX95/M0#g 1.66285e-18
CH36 4#17 VSS#81 1.60557e-18
CH37 4#17 VSS#47 1.22574e-17
CH38 MX86/M0#d VSS#64 7.24683e-18
CH39 4#16 VSS#82 7.45918e-18
CH40 4#20 VSS#81 2.07771e-17
CH41 4#19 VSS#48 1.36234e-17
CH42 4 VSS#47 6.44632e-18
CH43 4#17 VSS#48 1.98071e-17
CH44 4#18 VSS#48 1.40947e-17
CH45 4#16 VSS#46 7.15438e-18
CH46 MX86/M0#d VSS#81 5.3592e-18
CH47 4#12 MX94/M0#g 7.80226e-18
CH48 4#16 VSS#47 2.91919e-17
CH49 4#12 VSS#48 1.49029e-17
CH50 MX104/M0#g MX104/M0#s 7.15597e-18
RgH211 4 4#8 345.872406 $L=1.135 $W=0.15
RgH212 4#8 4#9 34.134449 $L=0.1645 $W=0.27
RgH213 4#9 MX104/M0#g 379.217957 $L=1.18 $W=0.15
RfH214 4#11 4#12 7.905882 $L=0.105 $W=0.17
RfH215 4#13 4#15 3.764706 $L=0.05 $W=0.17
RfH216 4#16 4#17 85.458824 $L=1.135 $W=0.17
ReH217 4#18 4#19 0.559783 $L=1.03 $W=0.23
ReH218 4#19 4#20 0.703804 $L=1.295 $W=0.23
RhH219 MX86/M0#d 4#15 15.000000 $A=0.0289
Rh_2_H220 MX94/M0#d 4#11 15.000000 $A=0.0289
RjH221 4#12 4#18 152.000000 $A=0.0289
RjH222 4#17 4#19 152.000000 $A=0.0289
RjH223 4#13 4#20 152.000000 $A=0.0289
RiH224 4#8 4#16 15.000000 $A=0.0289
RmwH225 MX78/M0#g 4 0.001000 $W=1000000
*
*|NET A 5.2349e-16
*|P (A X 0 0.9350 2.7850)
*|I (MX83/M0#g MX83/M0 g X 0 0.4750 0.8000)
*|I (MX74/M0#g MX74/M0 g X 0 0.4750 3.2800)
*|S (A#8 0.4750 2.6500)
*|S (A#9 0.4750 2.4850)
*|S (A#10 0.9050 2.6500)
*|S (A#11 0.4750 2.6500)
*|S (A#12 0.9050 2.6500)
*|S (A#13 0.9200 2.6500)
*|S (A#14 0.9200 2.7850)
CA1 MX74/M0#g VSS 1.7007e-18
CA2 MX83/M0#g VSS 1.64083e-17
CA3 A#14 VSS 5.08935e-18
CA4 A#13 VSS 5.19198e-18
CA5 A#11 VSS 8.12833e-19
CA6 A#10 VSS 2.24464e-18
CA7 A#10 41 6.03731e-18
CA8 A#14 41 2.62781e-17
CA9 MX74/M0#g 41 2.47464e-18
CA10 A#10 2#19 1.50836e-18
CA11 A#13 2#18 3.1507e-18
CA12 A#14 2#18 3.89838e-17
CA13 A#14 2#12 3.92006e-18
CA14 A#13 2#17 4.49175e-18
CA15 A#13 2#19 3.20197e-17
CA16 MX83/M0#g 1#20 2.32961e-18
CA17 A#11 1#18 1.72315e-17
CA18 A#14 1#18 3.60069e-17
CA19 A#13 1#18 7.30992e-18
CA20 A#10 1 4.60298e-18
CA21 A#13 1#16 1.5025e-17
CA22 MX74/M0#g 1#12 8.88823e-18
CA23 A#11 1#19 8.36419e-18
CA24 A#11 1#12 6.85053e-18
CA25 A#14 1#12 5.43283e-18
CA26 A#13 1#19 2.62523e-17
CA27 MX74/M0#g 1#17 2.95688e-18
CA28 A#11 1#16 3.94252e-18
CA29 A#10 1#16 8.62813e-18
CA30 A#11 1#17 9.00854e-18
CA31 MX83/M0#g 1#17 5.23647e-18
CA32 MX83/M0#g MX83/M0#d 8.12962e-18
CA33 A#13 VSS#67 1.68299e-18
CA34 MX74/M0#g VSS#81 1.37737e-18
CA35 A#10 VSS#50 2.23942e-17
CA36 A#13 MX102/M0#s 3.03201e-18
CA37 A#13 VSS#50 8.54649e-18
CA38 MX83/M0#g MX102/M0#s 8.41205e-18
CA39 MX83/M0#g VSS#81 4.8201e-18
CA40 MX83/M0#g VSS#67 5.74683e-18
CA41 A#13 VDD 1.94472e-18
CA42 A#10 VDD#74 1.34719e-18
CA43 MX74/M0#g VDD#74 5.21861e-18
CA44 MX74/M0#g VDD 1.39295e-17
CA45 MX74/M0#g MX76/M0#s 1.0183e-17
CA46 A#11 VDD 1.42098e-17
CA47 A#10 VDD 6.53807e-18
CA48 A#10 MX76/M0#s 1.40171e-17
CA49 A#14 VDD 2.89882e-18
CA50 A#11 VDD#74 2.69594e-18
CA51 A#14 MX76/M0#s 2.36373e-17
CA52 A#11 MX76/M0#s 1.41081e-17
CA53 A#14 VDD#74 2.29441e-17
CA54 A#14 VDD#67 3.52631e-18
CA55 MX74/M0#g VDD#67 3.77064e-18
RgA1 MX74/M0#g A#8 183.599075 $L=0.63 $W=0.15
RgA2 A#8 A#9 34.134449 $L=0.1645 $W=0.27
RgA3 A#9 MX83/M0#g 541.491272 $L=1.685 $W=0.15
RfA4 A#10 A#11 32.376472 $L=0.43 $W=0.17
ReA5 A#12 A#13 0.001512 $L=0.015 $W=1.24
ReA6 A#14 A 0.001512 $L=0.015 $W=1.24
ReA7 A#13 A#14 0.064904 $L=0.135 $W=0.26
RjA8 A#10 A#12 152.000000 $A=0.0289
RiA9 A#8 A#11 15.000000 $A=0.0289
*
*|NET 7 9.91749e-16
*|I (MX88/M0#d MX88/M0 d X 0 6.6895 0.8000)
*|I (MX82/M0#g MX82/M0 g X 0 7.6250 0.8000)
*|I (MX100/M0#g MX100/M0 g X 0 7.6250 3.2800)
*|I (MX97/M0#d MX97/M0 d X 0 6.6895 3.2800)
*|S (7 7.6250 3.2800)
*|S (7#8 7.6550 1.7950)
*|S (7#9 7.6550 1.6300)
*|S (7#11 6.5500 3.2800)
*|S (7#12 6.5500 3.1750)
*|S (7#13 6.5500 0.8500)
*|S (7#15 6.5500 0.8000)
*|S (7#16 7.6550 1.7950)
*|S (7#17 6.5500 1.7950)
*|S (7#18 6.5500 3.1750)
*|S (7#19 6.5500 1.7950)
*|S (7#20 6.5500 0.8500)
CK1 MX82/M0#g VSS 2.19051e-17
CK2 MX88/M0#d VSS 3.49709e-18
CK3 7#20 VSS 1.97754e-17
CK4 7#19 VSS 3.21575e-17
CK5 7#18 VSS 5.82811e-18
CK6 7#16 VSS 2.41208e-17
CK7 7#17 VSS 2.31379e-17
CK8 7#12 VSS 2.37433e-18
CK9 7 VSS 8.05111e-18
CK10 7#12 61 2.64474e-17
CK11 MX88/M0#d 59 1.93352e-17
CK12 7#20 59 6.82136e-18
CK13 MX82/M0#g 59 1.31748e-18
CK14 7 61 1.63687e-18
CK15 7#18 61 6.74933e-18
CK16 7 8#12 1.43725e-18
CK17 MX82/M0#g MX91/M0#d 1.31748e-18
CK18 MX88/M0#d 8#20 1.00436e-18
CK19 7#16 8#19 1.34603e-17
CK20 7#16 8#17 5.84822e-18
CK21 7#19 8#17 5.76402e-18
CK22 MX82/M0#g VSS#79 4.8201e-18
CK23 7#20 VSS#62 4.60773e-18
CK24 7#16 VSS#79 4.04553e-18
CK25 MX82/M0#g VSS#62 3.64084e-18
CK26 7#20 MX105/M0#s 3.01404e-18
CK27 7#12 MX96/M0#g 2.01122e-18
CK28 7#17 VSS#79 1.87469e-18
CK29 7#16 VSS#44 1.86354e-18
CK30 7#18 MX97/M0#g 1.64315e-18
CK31 7#18 VSS#44 4.10729e-17
CK32 7 VSS#43 7.55711e-18
CK33 7#12 MX97/M0#g 7.80226e-18
CK34 MX88/M0#d VSS#79 5.3592e-18
CK35 MX88/M0#d VSS#62 7.24683e-18
CK36 7#20 VSS#79 2.07771e-17
CK37 7#12 VSS#44 1.49029e-17
CK38 MX82/M0#g MX105/M0#s 7.15597e-18
CK39 7#16 VSS#43 1.17016e-17
RgK256 7 7#8 453.615540 $L=1.485 $W=0.15
RgK257 7#8 7#9 34.134449 $L=0.1645 $W=0.27
RgK258 7#9 MX82/M0#g 266.751282 $L=0.83 $W=0.15
RfK259 7#11 7#12 7.905882 $L=0.105 $W=0.17
RfK260 7#13 7#15 3.764706 $L=0.05 $W=0.17
RfK261 7#16 7#17 83.199997 $L=1.105 $W=0.17
ReK262 7#18 7#19 0.750000 $L=1.38 $W=0.23
ReK263 7#19 7#20 0.513587 $L=0.945 $W=0.23
RhK264 MX88/M0#d 7#15 15.000000 $A=0.0289
Rh_2_K265 MX97/M0#d 7#11 15.000000 $A=0.0289
RjK266 7#12 7#18 152.000000 $A=0.0289
RjK267 7#17 7#19 152.000000 $A=0.0289
RjK268 7#13 7#20 152.000000 $A=0.0289
RiK269 7#8 7#16 15.000000 $A=0.0289
RmwK270 MX100/M0#g 7 0.001000 $W=1000000
*
*|NET VDD 4.54837e-15
*|P (VDD X 0 4.8250 4.1450)
*|I (MX91/M0#g MX91/M0 g X 0 8.0550 0.8000)
*|I (MX90/M0#g MX90/M0 g X 0 5.8150 0.8000)
*|I (MX89/M0#g MX89/M0 g X 0 2.2850 0.8000)
*|I (MX88/M0#g MX88/M0 g X 0 6.7650 0.8000)
*|I (MX87/M0#g MX87/M0 g X 0 4.5250 0.8000)
*|I (MX86/M0#g MX86/M0 g X 0 3.5750 0.8000)
*|I (MX85/M0#g MX85/M0 g X 0 1.3350 0.8000)
*|I (MX106/M0#s MX106/M0 s X 0 9.3595 3.2400)
*|I (MX106/M1#d MX106/M1 d X 0 9.9405 3.2400)
*|I (MX106/M2#s MX106/M2 s X 0 10.2195 3.2400)
*|I (MX106/M3#d MX106/M3 d X 0 10.8005 3.2400)
*|I (MX100/M0#s MX100/M0 s X 0 7.5495 3.2800)
*|I (MX99/M0#s MX99/M0 s X 0 5.3095 3.2800)
*|I (MX79/M0#s MX79/M0 s X 0 7.2705 3.2800)
*|I (MX78/M0#s MX78/M0 s X 0 5.0305 3.2800)
*|I (MX77/M0#s MX77/M0 s X 0 3.0695 3.2800)
*|I (MX76/M0#s MX76/M0 s X 0 0.8295 3.2800)
*|I (MX75/M0#s MX75/M0 s X 0 9.0805 3.2400)
*|I (MX74/M0#s MX74/M0 s X 0 0.5505 3.2800)
*|I (MM0#d MM0 d X 0 2.7905 3.2800)
*|S (VDD#22 1.3350 1.1250)
*|S (VDD#23 1.3350 1.2900)
*|S (VDD#24 2.2850 1.1250)
*|S (VDD#25 2.2850 1.2900)
*|S (VDD#26 3.5750 1.1250)
*|S (VDD#27 3.5750 1.2900)
*|S (VDD#28 4.5250 1.1250)
*|S (VDD#29 4.5250 1.2900)
*|S (VDD#30 5.8150 1.1250)
*|S (VDD#31 5.8150 1.2900)
*|S (VDD#32 6.7650 1.1250)
*|S (VDD#33 6.7650 1.2900)
*|S (VDD#34 8.0550 1.1250)
*|S (VDD#35 8.0550 1.2900)
*|S (VDD#36 8.0550 1.2900)
*|S (VDD#37 6.7650 1.2900)
*|S (VDD#38 5.8150 1.2900)
*|S (VDD#39 4.5250 1.2900)
*|S (VDD#40 3.5750 1.2900)
*|S (VDD#41 3.2700 1.2900)
*|S (VDD#42 2.2850 1.2900)
*|S (VDD#43 1.3350 1.2900)
*|S (VDD#44 11.4995 4.1400)
*|S (VDD#45 10.9400 4.1400)
*|S (VDD#46 10.0800 4.1400)
*|S (VDD#47 9.2000 4.1400)
*|S (VDD#48 9.2000 4.1400)
*|S (VDD#51 10.9400 3.2400)
*|S (VDD#53 10.0800 3.2400)
*|S (VDD#55 9.2200 3.2400)
*|S (VDD#56 7.4100 4.1400)
*|S (VDD#58 7.4100 3.2800)
*|S (VDD#59 5.1700 4.1400)
*|S (VDD#61 5.1700 3.2800)
*|S (VDD#62 3.6800 4.1400)
*|S (VDD#64 2.9300 4.1400)
*|S (VDD#66 2.9300 3.2800)
*|S (VDD#67 0.6900 4.1400)
*|S (VDD#69 0.6900 3.2800)
*|S (VDD#70 0.0000 4.1400)
*|S (VDD#71 9.2000 4.1400)
*|S (VDD#72 3.6800 4.1400)
*|S (VDD#73 3.2700 4.1400)
*|S (VDD#74 0.0000 4.1400)
*|S (VDD#75 3.2700 1.2900)
CB1 MX76/M0#s VSS 5.58063e-19
CB2 MX77/M0#s VSS 4.69769e-18
CB3 MX99/M0#s VSS 4.76735e-19
CB4 MX100/M0#s VSS 1.13719e-18
CB5 MX106/M1#d VSS 2.0054e-18
CB6 MX106/M0#s VSS 2.0054e-18
CB7 MX85/M0#g VSS 1.98466e-17
CB8 MX86/M0#g VSS 1.82004e-17
CB9 MX87/M0#g VSS 2.53435e-17
CB10 MX88/M0#g VSS 2.31305e-17
CB11 MX89/M0#g VSS 2.18953e-17
CB12 MX90/M0#g VSS 2.07584e-17
CB13 MX91/M0#g VSS 2.21082e-17
CB14 VDD#75 VSS 1.66299e-17
CB15 VDD#73 VSS 8.71726e-19
CB16 VDD#71 VSS 1.24765e-18
CB17 VDD#74 VSS 1.59895e-18
CB18 VDD#67 VSS 2.94539e-18
CB19 VDD#59 VSS 1.23861e-18
CB20 VDD#56 VSS 1.88306e-18
CB21 VDD#46 VSS 9.11802e-19
CB22 VDD#45 VSS 2.42043e-18
CB23 VDD#43 VSS 2.82925e-17
CB24 VDD#42 VSS 2.4114e-17
CB25 VDD#40 VSS 1.88423e-17
CB26 VDD#39 VSS 3.2843e-17
CB27 VDD#38 VSS 2.70227e-17
CB28 VDD#37 VSS 2.70012e-17
CB29 VDD#36 VSS 2.52353e-17
CB30 VDD#41 VSS 1.24339e-17
CB31 VDD#62 VSS 1.22746e-18
CB32 VDD VSS 6.1669e-19
CB33 VDD#36 63 2.48809e-17
CB34 MX106/M0#s 65 2.44642e-18
CB35 MX91/M0#g 63 6.57799e-18
CB36 MX100/M0#s 65 3.47429e-17
CB37 VDD#71 65 7.98411e-18
CB38 VDD#56 65 8.74874e-18
CB39 VDD 65 7.52534e-18
CB40 MX99/M0#s 53 3.47429e-17
CB41 VDD#39 51 2.48809e-17
CB42 VDD#56 61 8.74874e-18
CB43 MX87/M0#g 51 6.57799e-18
CB44 VDD#59 53 8.74874e-18
CB45 VDD#73 53 2.11802e-18
CB46 VDD#37 59 2.48809e-17
CB47 VDD 61 6.03661e-18
CB48 VDD 57 1.31147e-17
CB49 VDD 53 1.33035e-17
CB50 VDD#59 57 8.74874e-18
CB51 VDD#71 61 7.98411e-18
CB52 MX90/M0#g 55 6.57799e-18
CB53 VDD#38 55 2.20911e-17
CB54 MX99/M0#s 57 3.47429e-17
CB55 MX88/M0#g 59 6.57799e-18
CB56 MX100/M0#s 61 3.47429e-17
CB57 VDD#74 39 3.94117e-19
CB58 VDD#74 41 9.97648e-18
CB59 VDD#40 47 7.34386e-18
CB60 VDD#41 47 1.50426e-17
CB61 VDD#75 47 7.47423e-18
CB62 VDD#73 49 2.97378e-17
CB63 VDD#72 49 2.09905e-18
CB64 VDD#73 45 1.27928e-17
CB65 VDD 49 4.40953e-18
CB66 MX89/M0#g 43 6.57799e-18
CB67 MX85/M0#g 39 6.57799e-18
CB68 VDD 45 5.44269e-18
CB69 VDD#43 39 1.44916e-17
CB70 VDD 41 1.14654e-17
CB71 MX77/M0#s 49 2.88988e-17
CB72 VDD#73 41 9.50214e-19
CB73 VDD#62 49 6.66265e-18
CB74 VDD#67 41 8.75484e-18
CB75 MX76/M0#s 41 3.02721e-17
CB76 VDD#64 49 9.22601e-19
CB77 VDD#42 43 2.48809e-17
CB78 VDD#64 45 8.74874e-18
CB79 MX86/M0#g 47 6.57799e-18
CB80 MX77/M0#s 45 3.39549e-17
CB81 MX106/M0#s 35#42 6.50864e-18
CB82 VDD#71 35#36 6.48383e-18
CB83 VDD#47 35#36 6.1405e-18
CB84 VDD#71 35 5.48428e-18
CB85 VDD 35#43 4.93432e-18
CB86 MX106/M1#d 35#40 4.92444e-18
CB87 VDD#36 MX84/M0#d 4.74104e-18
CB88 VDD#71 35#40 4.61251e-18
CB89 VDD#46 MX106/M2#g 4.34129e-18
CB90 VDD#46 MX106/M1#g 4.34129e-18
CB91 VDD#45 MX106/M3#g 4.34129e-18
CB92 VDD#47 35 4.34129e-18
CB93 MX106/M0#s 35#41 4.06376e-18
CB94 MX106/M0#s 35#40 4.05427e-18
CB95 VDD#71 MX106/M3#g 3.97376e-18
CB96 VDD#36 35#44 3.85486e-18
CB97 VDD#71 MX106/M2#g 3.5465e-18
CB98 VDD#71 MX106/M1#g 3.5465e-18
CB99 VDD#47 35#42 3.25465e-18
CB100 MX106/M1#d MX106/M3#g 3.18655e-18
CB101 VDD#71 35#41 2.82377e-18
CB102 MX106/M3#d MX106/M2#g 2.03455e-18
CB103 VDD MX106/M2#g 9.69429e-18
CB104 VDD MX106/M1#g 9.69429e-18
CB105 VDD 35#36 1.20532e-17
CB106 MX106/M1#d MX106/M1#g 9.66683e-18
CB107 MX106/M1#d MX106/M2#g 9.66683e-18
CB108 MX106/M3#d MX106/M3#g 1.27567e-17
CB109 VDD 35 1.19603e-17
CB110 VDD#71 35#42 1.37392e-17
CB111 MX106/M0#s 35#36 3.351e-17
CB112 VDD 35#42 1.12935e-17
CB113 MX106/M0#s 35 9.66683e-18
CB114 VDD MX106/M3#g 1.46088e-17
CB115 VDD#47 8 4.34129e-18
CB116 VDD#47 8#12 3.26198e-18
CB117 VDD#71 8#17 3.20119e-18
CB118 VDD#56 8#12 2.75743e-18
CB119 VDD#47 8#18 1.98045e-18
CB120 MX106/M0#s 8 1.02324e-17
CB121 VDD#36 MX91/M0#d 8.43504e-18
CB122 VDD#71 8 5.48428e-18
CB123 MX100/M0#s 8#18 5.44725e-18
CB124 VDD#36 8#19 1.41338e-17
CB125 VDD#71 8#18 1.73611e-17
CB126 VDD#36 8#17 1.98449e-17
CB127 VDD#71 8#12 6.35926e-18
CB128 VDD#36 8#20 1.05682e-17
CB129 VDD 8#19 1.51373e-17
CB130 MX91/M0#g MX91/M0#d 7.13214e-18
CB131 VDD 8#18 2.03584e-17
CB132 VDD 8 1.19603e-17
CB133 VDD#56 7 3.77064e-18
CB134 VDD#56 7#18 3.51037e-18
CB135 VDD#71 7#16 1.9649e-18
CB136 MX90/M0#g MX88/M0#d 1.76427e-18
CB137 VDD#71 7#18 1.73611e-17
CB138 VDD#37 7#16 1.50511e-17
CB139 VDD#37 7#20 2.44143e-17
CB140 VDD#36 MX82/M0#g 6.9216e-18
CB141 VDD 7#19 1.27083e-17
CB142 VDD 7#18 1.64657e-17
CB143 VDD#71 7#12 5.83913e-18
CB144 VDD#37 7#19 1.5542e-17
CB145 VDD#36 7#16 2.08826e-17
CB146 MX100/M0#s 7 8.66249e-18
CB147 VDD 7 1.39295e-17
CB148 MX100/M0#s 7#18 6.82188e-18
CB149 VDD#56 7#12 6.04287e-18
CB150 VDD#37 MX88/M0#d 2.13458e-17
CB151 MX88/M0#g MX88/M0#d 7.13214e-18
CB152 VDD#37 7#17 3.26411e-17
CB153 VDD#71 7 5.21861e-18
CB154 VDD#71 6 5.21861e-18
CB155 VDD#59 6#12 4.96765e-18
CB156 VDD#56 6 3.77064e-18
CB157 VDD#71 6#12 3.59766e-18
CB158 VDD 6#19 3.56896e-18
CB159 VDD#59 6#18 3.50184e-18
CB160 VDD#37 6#17 2.35002e-18
CB161 VDD#71 6#16 2.25007e-18
CB162 VDD 6#12 2.22264e-18
CB163 MX88/M0#g MX90/M0#d 1.76427e-18
CB164 VDD#71 6#17 1.33433e-18
CB165 MX90/M0#g 6#17 1.30355e-18
CB166 VDD 6#17 1.05724e-17
CB167 VDD#38 6#17 6.94507e-18
CB168 VDD#38 MX90/M0#d 2.13458e-17
CB169 VDD#71 6#18 1.02967e-17
CB170 MX99/M0#s 6#18 6.82188e-18
CB171 VDD#37 MX105/M0#g 6.9216e-18
CB172 VDD#38 6#20 3.1668e-17
CB173 VDD 6#18 1.43214e-17
CB174 VDD 6 1.39295e-17
CB175 MX100/M0#s 6 8.66249e-18
CB176 VDD 6#16 1.43735e-17
CB177 MX90/M0#g MX90/M0#d 7.13214e-18
CB178 VDD 5#19 4.28585e-18
CB179 VDD#59 5 3.77064e-18
CB180 VDD#72 5#12 3.71067e-18
CB181 VDD#62 5#18 3.50184e-18
CB182 VDD 5#12 2.10962e-18
CB183 VDD#73 5#12 1.76751e-18
CB184 MX86/M0#g MX87/M0#d 1.76427e-18
CB185 MX87/M0#g 5#20 1.59413e-18
CB186 MX87/M0#g 5#17 1.35727e-18
CB187 VDD#72 5#18 1.05661e-17
CB188 VDD#38 MX81/M0#g 5.69716e-18
CB189 MX87/M0#g MX87/M0#d 7.13214e-18
CB190 VDD#39 5#20 2.12411e-17
CB191 MX99/M0#s 5#18 6.82188e-18