*
*|DSPF 1.5
*
*|DATE "Fri Feb 28 13:12:52 2025"
*|VENDOR "Cadence Design Systems"
*|PROGRAM "Cadence Quantus Extraction"
*|VERSION "22.1.0-p089 Linux 64 bit - (Thu Jan 19 11:47:08 PST 2023)"
*|DESIGN "MX2X1_LP"
*|DIVIDER /
*|DELIMITER #
*|DeviceFingerDelim "@"
*|BUSBIT []
*|GLOBAL_TEMPERATURE 25
*|OPERATING_TEMPERATURE 25
** QRC_TECH_DIR /vols/wfo_devel/projects/reference_SKY130/tech/sky130_release_0.0.4/quantus/extraction/typical 
** HIERARCHICAL_SPLIT_PINS_DELIMITER '%'
** caps2d version: 10
*
.SUBCKT  MX2X1_LP A B S0 VDD VSS Y
*
*Net Section
*
*|GROUND_NET VSS
*
*|NET B 4.42478e-16
*|P (B X 0 2.2900 1.5250)
*|I (MX23/M0#g MX23/M0 g X 0 2.1950 0.8000)
*|I (MX26/M0#g MX26/M0 g X 0 2.1950 3.2800)
*|S (B#8 2.1750 1.7800)
*|S (B#9 2.1750 1.6150)
*|S (B#10 2.3000 1.7800)
*|S (B#11 2.1750 1.7800)
*|S (B#12 2.3000 1.7800)
CB1 MX26/M0#g VSS 8.96946e-18
CB2 MX23/M0#g VSS 1.84836e-17
CB3 B#11 VSS 2.19568e-17
CB4 B VSS 2.12156e-17
CB5 B#11 17 4.53916e-18
CB6 MX23/M0#g 17 6.54489e-18
CB7 B 17 6.87623e-18
CB8 MX26/M0#g 2#19 1.49595e-18
CB9 MX26/M0#g 2#12 1.43725e-18
CB10 B MX28/M0#d 1.16002e-18
CB11 B 2#16 4.24667e-18
CB12 B#11 2#18 5.17732e-18
CB13 B 2#20 3.62244e-17
CB14 B 2#19 2.35974e-17
CB15 B 2#18 5.75457e-17
CB16 B#11 2#19 1.11843e-17
CB17 MX26/M0#g 2#18 3.64823e-18
CB18 B Y#10 1.23422e-17
CB19 B MX25/M0#d 2.2756e-18
CB20 B Y 2.44236e-17
CB21 B#11 Y 5.36565e-18
CB22 B Y#11 2.04331e-17
CB23 B VSS#2 1.71909e-18
CB24 B VSS#12 1.47834e-17
CB25 B#11 MX25/M0#s 3.76699e-18
CB26 B MX25/M0#s 1.54816e-17
CB27 B#11 VSS#12 3.98141e-18
CB28 MX23/M0#g VSS#2 3.23738e-18
CB29 MX23/M0#g VSS#3 2.49029e-18
CB30 MX23/M0#g VSS#12 3.14426e-18
CB31 MX23/M0#g MX25/M0#s 6.0281e-18
CB32 MX26/M0#g VDD#12 4.60621e-18
CB33 MX26/M0#g VDD 1.15086e-17
CB34 MX26/M0#g VDD#2 3.25366e-18
CB35 B#11 VDD#12 3.73893e-18
CB36 MX26/M0#g VDD#3 2.50282e-18
CB37 MX26/M0#g MX26/M0#s 8.42278e-18
CB38 B VDD 2.8697e-18
CB39 B#11 S0#26 2.86825e-17
CB40 B S0#26 2.31175e-17
RgB8 MX26/M0#g B#8 463.159088 $L=1.5 $W=0.15
RgB9 B#8 B#9 34.134449 $L=0.1645 $W=0.27
RgB10 B#9 MX23/M0#g 261.931305 $L=0.815 $W=0.15
RfB11 B#10 B#11 9.411764 $L=0.125 $W=0.17
ReB12 B B#12 0.122596 $L=0.255 $W=0.26
RjB13 B#10 B#12 152.000000 $A=0.0289
RiB14 B#8 B#11 15.000000 $A=0.0289
*
*|NET 2 1.07406e-15
*|I (MX28/M0#d MX28/M0 d X 0 1.6895 0.8000)
*|I (MX27/M0#d MX27/M0 d X 0 1.4105 0.8000)
*|I (MX25/M0#g MX25/M0 g X 0 2.6850 0.8000)
*|I (MX24/M0#g MX24/M0 g X 0 2.6850 3.2400)
*|I (MX22/M0#d MX22/M0 d X 0 1.4105 3.2800)
*|I (MM1#s MM1 s X 0 1.6895 3.2800)
*|S (2 2.6850 3.2400)
*|S (2#8 2.7250 2.1450)
*|S (2#9 2.7250 1.9800)
*|S (2#11 1.5500 3.2800)
*|S (2#12 1.5500 3.2350)
*|S (2#13 1.5500 0.8000)
*|S (2#16 2.7250 2.1450)
*|S (2#18 2.7250 2.1450)
*|S (2#19 1.5500 2.4050)
*|S (2#20 1.5500 0.8000)
*|S (2#21 1.5500 3.2350)
CH1 MX25/M0#g VSS 1.37205e-17
CH2 MX28/M0#d VSS 3.97369e-18
CH3 2#21 VSS 2.07726e-18
CH4 2#20 VSS 1.05765e-17
CH5 2#19 VSS 9.58152e-18
CH6 2#18 VSS 7.46008e-18
CH7 2#16 VSS 1.10269e-17
CH8 2#12 VSS 7.67446e-19
CH9 2 VSS 2.09974e-18
CH10 2#19 17 4.16216e-18
CH11 2#19 19 1.27578e-17
CH12 MX28/M0#d 17 1.86297e-17
CH13 MX25/M0#g 17 1.75602e-18
CH14 2#12 19 2.46424e-17
CH15 2#21 19 1.11521e-17
CH16 2 19 3.45547e-18
CH17 2#20 17 7.2392e-18
CH18 2#21 15 9.20915e-18
CH19 2#20 13 6.58449e-18
CH20 2#12 15 2.40907e-17
CH21 MX28/M0#d 13 2.05435e-17
CH22 MX25/M0#g VSS#12 4.08664e-18
CH23 2#18 MX25/M0#s 2.64095e-18
CH24 2#19 VSS#3 2.37879e-18
CH25 MX28/M0#d VSS#12 5.41919e-18
CH26 2#20 VSS#12 2.24605e-17
CH27 MX28/M0#d VSS#3 7.23952e-18
CH28 MX25/M0#g MX25/M0#s 7.63955e-18
CH29 MX25/M0#g VSS#2 5.74683e-18
CH30 2#20 VSS#3 5.32724e-18
RgH83 2 2#8 328.295532 $L=1.095 $W=0.15
RgH84 2#8 2#9 34.134449 $L=0.1645 $W=0.27
RgH85 2#9 MX25/M0#g 379.217957 $L=1.18 $W=0.15
RfH86 2#11 2#12 3.388236 $L=0.045 $W=0.17
ReH87 2#18 2#19 0.673596 $L=1.435 $W=0.23
ReH88 2#19 2#20 0.867498 $L=1.605 $W=0.23
ReH89 2#19 2#21 0.446302 $L=0.83 $W=0.23
RhH90 MX28/M0#d 2#13 15.000000 $A=0.0289
Rh_2_H91 MX22/M0#d 2#11 15.000000 $A=0.0289
RjH92 2#16 2#18 152.000000 $A=0.0289
RjH93 2#13 2#20 152.000000 $A=0.0289
RjH94 2#12 2#21 152.000000 $A=0.0289
RiH95 2#8 2#16 15.000000 $A=0.0289
RmwH96 MX27/M0#d MX28/M0#d 0.001000 $W=1000000
RmwH97 MX24/M0#g 2 0.001000 $W=1000000
RmwH98 MM1#s MX22/M0#d 0.001000 $W=1000000
*
*|NET 17 1.10661e-16
*|I (MX28/M0#s MX28/M0 s X 0 1.8405 0.8000)
*|I (MX23/M0#d MX23/M0 d X 0 2.1195 0.8000)
*|S (17 1.9800 0.8000)
CJ1 17 VSS 9.55031e-18
CJ2 17 VSS#3 6.01458e-18
CJ3 17 VSS#12 7.97535e-18
CJ4 17 MX25/M0#s 1.74958e-17
RmwJ103 MX28/M0#s 17 0.001000 $W=1000000
RmwJ104 MX23/M0#d 17 0.001000 $W=1000000
*
*|NET 19 1.28938e-16
*|I (MX26/M0#d MX26/M0 d X 0 2.1195 3.2800)
*|I (MM1#d MM1 d X 0 1.8405 3.2800)
*|S (19 1.9800 3.2350)
CJ5 19 VSS 2.94432e-17
RmwJ105 MX26/M0#d 19 0.001000 $W=1000000
RmwJ106 MM1#d 19 0.001000 $W=1000000
*
*|NET VDD 9.00666e-16
*|P (VDD X 0 1.3500 4.1450)
*|I (MX26/M0#s MX26/M0 s X 0 2.2705 3.2800)
*|I (MX24/M0#s MX24/M0 s X 0 2.6095 3.2400)
*|I (MX20/M0#s MX20/M0 s X 0 0.5505 3.2800)
*|I (MM0#s MM0 s X 0 0.8295 3.2800)
*|S (VDD#1 3.6795 4.1400)
*|S (VDD#2 2.4700 4.1400)
*|S (VDD#3 1.8400 4.1400)
*|S (VDD#4 1.8400 4.1400)
*|S (VDD#6 0.6900 4.1400)
*|S (VDD#7 0.0000 4.1400)
*|S (VDD#9 2.4700 3.2400)
*|S (VDD#11 0.6900 3.2800)
*|S (VDD#12 1.8400 4.1400)
CD1 MX26/M0#s VSS 5.33361e-18
CD2 VDD#12 VSS 2.72819e-18
CD3 VDD#6 VSS 3.85828e-18
CD4 VDD#2 VSS 5.87963e-19
CD5 VDD#3 VSS 3.62728e-19
CD6 VDD VSS 2.0183e-18
CD7 VDD#12 19 8.65321e-18
CD8 VDD 19 4.66363e-18
CD9 VDD#3 19 6.04458e-18
CD10 MX26/M0#s 19 2.81259e-17
CD11 VDD#12 15 7.11758e-18
CD12 VDD 15 6.18924e-18
CD13 VDD#6 15 6.06011e-18
CD14 MX20/M0#s 15 2.45691e-17
CD15 VDD 2#21 4.25347e-18
CD16 VDD#2 2#18 4.0212e-18
CD17 VDD#3 2#21 4.0211e-18
CD18 VDD#3 2#19 3.49494e-18
CD19 VDD#12 2#16 2.94763e-18
CD20 VDD 2#19 2.03634e-17
CD21 VDD 2#18 2.01144e-17
CD22 VDD#3 2#12 7.27491e-18
CD23 MX26/M0#s 2#18 1.25879e-17
CD24 VDD#12 2#21 1.66223e-17
CD25 VDD#12 2 4.57338e-18
CD26 VDD 2 1.2878e-17
CD27 MX26/M0#s 2 1.09456e-17
CD28 VDD 2#16 8.95688e-18
CD29 VDD#2 2 5.81423e-18
CD30 VDD#12 2#12 5.78258e-18
CD31 VDD#12 1 3.3747e-18
CD32 VDD#7 1#18 2.90525e-18
CD33 VDD#12 1#17 1.95829e-18
CD34 MX26/M0#s 1 1.78662e-18
CD35 VDD 1#19 2.13038e-17
CD36 VDD 1#18 3.33079e-17
CD37 VDD#12 1#18 1.91517e-17
CD38 VDD 1#16 7.64831e-18
CD39 VDD#7 1#12 4.64656e-18
CD40 VDD#12 1#12 5.84667e-18
CD41 MX20/M0#s 1#18 6.68686e-18
CD42 VDD#3 1 5.07651e-18
CD43 MX20/M0#s 1#12 2.53772e-17
CD44 VDD 1 1.19911e-17
CD45 VDD 1#17 1.38681e-17
CD46 VDD 1#12 6.56721e-18
CD47 MX26/M0#s Y#3 3.09044e-17
CD48 VDD#1 Y#7 5.82628e-18
CD49 VDD Y#3 6.46717e-18
CD50 VDD#2 Y#3 6.07341e-18
CD51 VDD Y#7 8.02847e-17
CD52 VDD Y 1.30335e-17
CD53 VDD#12 Y#3 5.71378e-18
CD54 MX26/M0#s Y#7 1.422e-17
CD55 VDD#12 Y#7 4.33363e-17
CD56 VDD#2 Y#7 7.12142e-18
RfD32 VDD#1 VDD#2 61.651215 $L=1.2095 $W=0.25
RfD33 VDD#2 VDD#3 31.980810 $L=0.63 $W=0.25
RfD34 VDD#3 VDD#6 58.604813 $L=1.15 $W=0.25
RfD35 VDD#6 VDD#7 35.052811 $L=0.69 $W=0.25
RfD36 VDD#2 VDD#9 61.156857 $L=0.9 $W=0.17
RfD37 VDD#6 VDD#11 58.145092 $L=0.86 $W=0.17
ReD38 VDD#12 VDD 0.153125 $L=0.49 $W=0.4
Rh_1_D39 VDD#4 VDD#3 2.142857 $A=0.2023
Rh_2_D40 MX26/M0#s VDD#9 15.000000 $A=0.0289
Rh_2_D41 MX20/M0#s VDD#11 15.000000 $A=0.0289
RjD42 VDD#3 VDD#12 21.714285 $A=0.2023
RmwD43 MX24/M0#s MX26/M0#s 0.001000 $W=1000000
RmwD44 MM0#s MX20/M0#s 0.001000 $W=1000000
*
*|NET A 4.21506e-16
*|P (A X 0 0.9350 1.0050)
*|I (MX29/M0#g MX29/M0 g X 0 0.9050 0.8000)
*|I (MM0#g MM0 g X 0 0.9050 3.2800)
*|S (A#8 0.9050 1.3850)
*|S (A#9 0.9050 1.2200)
*|S (A#10 0.9200 1.3850)
*|S (A#11 0.9050 1.3850)
*|S (A#12 0.9200 1.3850)
CA1 MM0#g VSS 8.44171e-18
CA2 MX29/M0#g VSS 1.07101e-17
CA3 A#12 VSS 6.12572e-18
CA4 A#11 VSS 1.52617e-17
CA5 A VSS 1.3733e-17
CA6 A#11 13 5.36891e-18
CA7 A 13 2.0797e-17
CA8 MX29/M0#g 13 6.24202e-18
CA9 MM0#g 2#12 1.43725e-18
CA10 A#12 2#19 1.21116e-17
CA11 A#11 2#20 4.23024e-18
CA12 A#12 2#20 2.78634e-17
CA13 A MX28/M0#d 3.70833e-18
CA14 A 2#20 3.14925e-17
CA15 MM0#g 1#12 1.69037e-18
CA16 A#12 1#17 1.60845e-18
CA17 MX29/M0#g MX21/M0#d 1.31473e-18
CA18 A#11 1#16 8.0594e-18
CA19 A#11 1#19 2.23795e-18
CA20 A MX21/M0#d 5.23033e-18
CA21 A#11 1#20 4.57512e-18
CA22 A#12 1#19 2.09202e-17
CA23 A#11 1#17 3.71728e-18
CA24 A#12 1#20 1.75126e-17
CA25 A#12 1#16 6.67247e-18
CA26 A 1#20 2.99445e-17
CA27 A#11 VSS#12 1.72125e-18
CA28 A VSS#6 4.49934e-18
CA29 A VSS#12 3.34103e-17
CA30 A MX25/M0#s 3.9233e-18
CA31 A MX29/M0#s 2.30584e-17
CA32 MX29/M0#g VSS#12 2.36634e-18
CA33 MX29/M0#g VSS#6 3.694e-18
CA34 A#11 MX29/M0#s 7.72489e-18
CA35 MX29/M0#g MX29/M0#s 6.24202e-18
CA36 MM0#g VDD#12 2.89901e-18
CA37 MM0#g VDD#6 3.79046e-18
CA38 MM0#g MX20/M0#s 7.74937e-18
CA39 MM0#g VDD 1.44458e-17
CA40 A#11 S0#27 1.73674e-18
CA41 A#11 S0#26 5.99149e-18
CA42 A#12 S0#27 1.4596e-17
CA43 A#12 S0#26 8.48684e-18
CA44 MM0#g S0#23 4.1631e-18
RgA1 MM0#g A#8 590.085754 $L=1.895 $W=0.15
RgA2 A#8 A#9 34.134449 $L=0.1645 $W=0.27
RgA3 A#9 MX29/M0#g 135.004623 $L=0.42 $W=0.15
RfA4 A#10 A#11 1.129412 $L=0.015 $W=0.17
ReA5 A A#12 0.182692 $L=0.38 $W=0.26
RjA6 A#10 A#12 152.000000 $A=0.0289
RiA7 A#8 A#11 15.000000 $A=0.0289
*
*|NET 1 7.98994e-16
*|I (MX27/M0#g MX27/M0 g X 0 1.3350 0.8000)
*|I (MX21/M0#d MX21/M0 d X 0 0.3995 0.8000)
*|I (MX20/M0#d MX20/M0 d X 0 0.3995 3.2800)
*|I (MM1#g MM1 g X 0 1.7650 3.2800)
*|S (1 1.7650 3.2800)
*|S (1#8 1.3350 2.0750)
*|S (1#9 1.3350 1.9100)
*|S (1#11 0.2600 3.2800)
*|S (1#12 0.2600 3.2350)
*|S (1#13 0.2600 0.8000)
*|S (1#16 1.3350 2.0750)
*|S (1#17 0.2600 2.0750)
*|S (1#18 0.2600 3.2350)
*|S (1#19 0.2600 2.0750)
*|S (1#20 0.2600 0.8000)
CG1 MX21/M0#d VSS 4.80018e-18
CG2 MX27/M0#g VSS 1.98068e-17
CG3 1#20 VSS 3.93017e-17
CG4 1#19 VSS 2.78703e-17
CG5 1#18 VSS 5.00644e-18
CG6 1#16 VSS 1.62345e-17
CG7 1#17 VSS 1.70444e-17
CG8 1#12 VSS 1.37285e-18
CG9 1 VSS 9.6213e-18
CG10 1#16 13 3.93224e-18
CG11 1#20 13 2.22251e-18
CG12 MX27/M0#g 13 6.21439e-18
CG13 1 2#19 2.58187e-18
CG14 1 2#21 1.7504e-18
CG15 1 2#12 6.79999e-18
CG16 1#19 2#19 1.12506e-17
CG17 1#16 2#19 2.79478e-17
CG18 MX27/M0#g MX28/M0#d 5.29263e-18
CG19 1#17 VSS#12 3.89377e-18
CG20 1#20 VSS#7 3.37883e-18
CG21 1#16 VSS#12 2.46012e-18
CG22 1#20 VSS#6 2.29058e-18
CG23 1#20 MX29/M0#s 6.49019e-18
CG24 1#20 VSS#12 2.24605e-17
CG25 MX21/M0#d VSS#7 4.62784e-18
CG26 MX27/M0#g VSS#12 4.8201e-18
CG27 MX21/M0#d MX29/M0#s 1.91758e-17
CG28 1#17 MX29/M0#s 4.8962e-18
CG29 MX27/M0#g VSS#3 5.74683e-18
CG30 MX21/M0#d VSS#12 5.51756e-18
RgG69 1 1#8 491.634460 $L=1.625 $W=0.15
RgG70 1#8 1#9 29.410927 $L=0.1645 $W=0.27
RgG71 1#9 MX27/M0#g 356.724640 $L=1.11 $W=0.15
RfG72 1#11 1#12 3.388236 $L=0.045 $W=0.17
RfG73 1#16 1#17 80.941177 $L=1.075 $W=0.17
ReG74 1#18 1#19 0.630435 $L=1.16 $W=0.23
ReG75 1#19 1#20 0.692935 $L=1.275 $W=0.23
RhG76 MX21/M0#d 1#13 15.000000 $A=0.0289
Rh_2_G77 MX20/M0#d 1#11 15.000000 $A=0.0289
RjG78 1#12 1#18 152.000000 $A=0.0289
RjG79 1#17 1#19 152.000000 $A=0.0289
RjG80 1#13 1#20 152.000000 $A=0.0289
RiG81 1#8 1#16 15.000000 $A=0.0289
RmwG82 MM1#g 1 0.001000 $W=1000000
*
*|NET Y 6.367e-16
*|P (Y X 0 3.2350 1.7200)
*|I (MX25/M0#d MX25/M0 d X 0 2.7605 0.8000)
*|I (MX24/M0#d MX24/M0 d X 0 2.7605 3.2400)
*|S (Y#2 2.9000 3.2400)
*|S (Y#3 2.9000 3.2050)
*|S (Y#4 2.9000 0.9350)
*|S (Y#6 2.9000 0.8000)
*|S (Y#7 2.9000 3.2050)
*|S (Y#8 3.2200 3.2050)
*|S (Y#9 3.2200 0.8450)
*|S (Y#10 3.0900 0.8450)
*|S (Y#11 2.9000 0.9350)
CF1 MX25/M0#d VSS 1.08923e-17
CF2 Y#11 VSS 1.06968e-17
CF3 Y#10 VSS 4.8068e-17
CF4 Y#7 VSS 1.00177e-17
CF5 Y#3 VSS 2.75268e-18
CF6 Y VSS 3.82119e-17
CF7 Y#11 2#16 3.06686e-18
CF8 MX25/M0#d 2#16 2.65674e-18
CF9 Y#11 2#20 2.56528e-18
CF10 MX25/M0#d 2#20 1.44596e-18
CF11 MX25/M0#d 2#18 1.10951e-18
CF12 Y#3 2#18 3.41515e-18
CF13 Y 2#18 3.32297e-17
CF14 MX25/M0#d MX25/M0#g 8.15113e-18
CF15 Y#7 2#18 3.28664e-17
CF16 Y#11 2#18 6.02827e-18
CF17 Y 2#16 7.60863e-18
CF18 Y#3 2 1.13935e-17
CF19 Y#7 2#16 3.64781e-18
CF20 Y#3 2#16 3.65388e-18
CF21 Y#7 2#21 1.49928e-17
CF22 Y#10 VSS#2 1.88412e-18
CF23 Y#11 VSS#12 1.50004e-17
CF24 Y#11 VSS#2 3.87184e-18
CF25 Y#10 VSS#12 2.38677e-17
CF26 MX25/M0#d MX25/M0#s 2.29533e-17
CF27 Y#10 VSS#1 5.82628e-18
CF28 MX25/M0#d VSS#2 6.03345e-18
CF29 Y#11 MX25/M0#s 4.54947e-18
CF30 MX25/M0#d VSS#12 6.41342e-18
RfF58 Y#2 Y#3 2.635294 $L=0.035 $W=0.17
RfF59 Y#4 Y#6 10.164705 $L=0.135 $W=0.17
ReF60 Y#7 Y#8 0.082503 $L=0.32 $W=0.59
ReF61 Y#8 Y 0.614364 $L=1.485 $W=0.26
ReF62 Y Y#9 0.359362 $L=0.875 $W=0.26
ReF63 Y#9 Y#10 0.037352 $L=0.1295 $W=0.41
ReF64 Y#10 Y#11 0.103337 $L=0.19 $W=0.23
RhF65 MX25/M0#d Y#6 15.000000 $A=0.0289
Rh_2_F66 MX24/M0#d Y#2 15.000000 $A=0.0289
RjF67 Y#3 Y#7 76.000000 $A=0.0578
RjF68 Y#4 Y#11 152.000000 $A=0.0289
*
*|NET VSS 1.0928e-15
*|P (VSS X 0 1.3500 0.0050)
*|I (MX29/M0#s MX29/M0 s X 0 0.8295 0.8000)
*|I (MX25/M0#s MX25/M0 s X 0 2.6095 0.8000)
*|I (MX23/M0#s MX23/M0 s X 0 2.2705 0.8000)
*|I (MX21/M0#s MX21/M0 s X 0 0.5505 0.8000)
*|S (VSS#1 3.6795 0.0000)
*|S (VSS#2 2.4700 0.0000)
*|S (VSS#3 1.8400 0.0000)
*|S (VSS#4 1.8400 0.0000)
*|S (VSS#6 0.6900 0.0000)
*|S (VSS#7 0.0000 0.0000)
*|S (VSS#9 2.4700 0.8000)
*|S (VSS#11 0.6900 0.8000)
*|S (VSS#12 1.8400 0.0000)
RfE45 VSS#1 VSS#2 61.651215 $L=1.2095 $W=0.25
RfE46 VSS#2 VSS#3 31.980810 $L=0.63 $W=0.25
RfE47 VSS#3 VSS#6 58.604813 $L=1.15 $W=0.25
RfE48 VSS#6 VSS#7 35.052811 $L=0.69 $W=0.25
RfE49 VSS#2 VSS#9 53.627445 $L=0.8 $W=0.17
RfE50 VSS#6 VSS#11 53.627445 $L=0.8 $W=0.17
ReE51 VSS#12 VSS 0.153125 $L=0.49 $W=0.4
RhE52 MX25/M0#s VSS#9 15.000000 $A=0.0289
RhE53 MX29/M0#s VSS#11 15.000000 $A=0.0289
Rh_3_E54 VSS#4 VSS#3 2.142857 $A=0.2023
RjE55 VSS#3 VSS#12 21.714285 $A=0.2023
RmwE56 MX23/M0#s MX25/M0#s 0.001000 $W=1000000
RmwE57 MX21/M0#s MX29/M0#s 0.001000 $W=1000000
*
*|NET 13 1.13865e-16
*|I (MX29/M0#d MX29/M0 d X 0 0.9805 0.8000)
*|I (MX27/M0#s MX27/M0 s X 0 1.2595 0.8000)
*|S (13 1.1200 0.8000)
CI1 13 VSS 9.73084e-18
CI2 13 MX29/M0#s 1.92714e-17
CI3 13 VSS#6 6.02313e-18
CI4 13 VSS#12 6.93491e-18
RmwI99 MX29/M0#d 13 0.001000 $W=1000000
RmwI100 MX27/M0#s 13 0.001000 $W=1000000
*
*|NET 15 1.53515e-16
*|I (MX22/M0#s MX22/M0 s X 0 1.2595 3.2800)
*|I (MM0#d MM0 d X 0 0.9805 3.2800)
*|S (15 1.1200 3.2350)
CI5 15 VSS 1.51716e-17
RmwI101 MX22/M0#s 15 0.001000 $W=1000000
RmwI102 MM0#d 15 0.001000 $W=1000000
*
*|NET S0 9.73403e-16
*|P (S0 X 0 0.9350 2.8750)
*|I (MX28/M0#g MX28/M0 g X 0 1.7650 0.8000)
*|I (MX21/M0#g MX21/M0 g X 0 0.4750 0.8000)
*|I (MX22/M0#g MX22/M0 g X 0 1.3350 3.2800)
*|I (MX20/M0#g MX20/M0 g X 0 0.4750 3.2800)
*|S (S0#15 0.4150 2.7795)
*|S (S0#16 0.4150 2.6150)
*|S (S0#17 0.4150 2.4500)
*|S (S0#18 1.3300 2.7795)
*|S (S0#19 1.3300 2.6150)
*|S (S0#20 1.7550 1.1250)
*|S (S0#21 1.7550 1.2900)
*|S (S0#22 1.3300 2.6150)
*|S (S0#23 0.9200 2.6150)
*|S (S0#24 0.4150 2.6150)
*|S (S0#25 1.7550 1.3745)
*|S (S0#26 1.7550 1.2900)
*|S (S0#27 0.9200 2.6150)
CC1 MX20/M0#g VSS 2.94914e-18
CC2 MX22/M0#g VSS 3.09853e-18
CC3 MX21/M0#g VSS 1.56323e-17
CC4 MX28/M0#g VSS 1.8057e-17
CC5 S0#26 VSS 4.27136e-17
CC6 S0#24 VSS 7.56701e-19
CC7 S0#22 VSS 3.49231e-18
CC8 S0#23 VSS 2.34953e-18
CC9 S0 VSS 4.76822e-18
CC10 MX28/M0#g 17 6.21439e-18
CC11 S0#26 17 1.36635e-17
CC12 S0#22 15 1.05234e-17
CC13 MX22/M0#g 15 7.72091e-18
CC14 S0#23 15 9.45491e-18
CC15 S0 15 3.0781e-17
CC16 MX20/M0#g 15 2.62749e-18
CC17 S0 2#12 4.55512e-18
CC18 S0#22 2#16 4.4782e-18
CC19 MX22/M0#g 2#21 1.57657e-18
CC20 MX28/M0#g 2#20 1.38689e-18
CC21 S0#26 MX28/M0#d 8.88876e-18
CC22 S0#22 2#12 8.57571e-18
CC23 MX22/M0#g 2#12 6.79999e-18
CC24 S0#26 2#20 2.93878e-17
CC25 S0#22 2#19 7.61501e-17
CC26 S0#27 2#19 3.77684e-17
CC27 MX28/M0#g MX28/M0#d 5.29263e-18
CC28 S0 2#21 3.61737e-17
CC29 S0#26 2#19 2.19131e-17
CC30 MX21/M0#g 1#17 3.29492e-18
CC31 S0#26 1#19 3.24301e-18
CC32 S0#27 1#17 2.19143e-18
CC33 MX20/M0#g 1#18 2.09435e-18
CC34 MX21/M0#g 1#20 2.03335e-18
CC35 S0#22 1#19 1.85777e-18
CC36 MX22/M0#g 1#16 1.66744e-18
CC37 S0#22 1#16 2.27111e-17
CC38 MX20/M0#g 1#12 8.87701e-18
CC39 S0#27 1#18 8.26073e-18
CC40 MX21/M0#g MX21/M0#d 6.89176e-18
CC41 S0#23 1#17 5.44422e-18
CC42 S0#24 1#12 9.85762e-18
CC43 S0#24 1#18 1.09159e-17
CC44 S0#26 1#16 1.24046e-17
CC45 S0#23 1#16 1.11919e-17
CC46 S0 1#12 6.31079e-18
CC47 S0#27 1#19 2.46648e-17
CC48 S0 1#18 3.58156e-17
CC49 S0#27 1#16 8.7098e-18
CC50 S0#24 1#17 1.78953e-17
CC51 S0#24 1#19 1.54527e-17
CC52 S0#22 1 7.41824e-18
CC53 S0#26 Y#10 2.90801e-18
CC54 S0#22 Y#7 5.53797e-18
CC55 S0#26 Y 3.56184e-18
CC56 MX21/M0#g VSS#6 4.29097e-18
CC57 S0#26 VSS#12 3.82065e-18
CC58 MX28/M0#g VSS#12 3.117e-18
CC59 MX28/M0#g VSS#3 4.87612e-18
CC60 MX21/M0#g MX29/M0#s 7.3052e-18
CC61 MX21/M0#g VSS#12 4.8201e-18
CC62 S0 VDD#6 4.20587e-18
CC63 S0 VDD 3.85687e-18
CC64 MX20/M0#g VDD#6 3.79046e-18
CC65 S0#27 VDD 3.64256e-18
CC66 S0#24 VDD#12 2.01993e-18
CC67 S0#22 VDD#3 1.8266e-18
CC68 MX22/M0#g MX20/M0#s 1.3904e-18
CC69 MX22/M0#g VDD#3 5.07651e-18
CC70 S0 MX20/M0#s 2.14759e-17
CC71 S0#23 MX20/M0#s 7.39963e-18
CC72 S0 VDD#12 2.65357e-17
CC73 S0#24 VDD 1.46215e-17
CC74 S0#22 VDD 3.28764e-17
CC75 MX22/M0#g VDD#12 5.21861e-18
CC76 MX20/M0#g MX20/M0#s 9.07616e-18
CC77 S0#22 VDD#12 5.66628e-18
CC78 MX20/M0#g VDD 1.40348e-17
CC79 MX20/M0#g VDD#12 5.21861e-18
CC80 MX22/M0#g VDD 1.61726e-17
CC81 S0#24 MX20/M0#s 8.16087e-18
CC82 S0#23 VDD 7.17038e-18
RgC15 MX20/M0#g S0#15 160.711288 $L=0.5 $W=0.15
RgC16 S0#15 S0#16 38.857975 $L=0.1645 $W=0.27
RgC17 S0#16 S0#17 29.410927 $L=0.1645 $W=0.27
RgC18 S0#17 MX21/M0#g 530.244629 $L=1.65 $W=0.15
RgC19 MX22/M0#g S0#18 160.711288 $L=0.5 $W=0.15
RgC20 S0#18 S0#19 34.134449 $L=0.1645 $W=0.27
RgC21 MX28/M0#g S0#20 104.477959 $L=0.325 $W=0.15
RgC22 S0#20 S0#21 34.134449 $L=0.1645 $W=0.27
RfC23 S0#22 S0#23 30.870588 $L=0.41 $W=0.17
RfC24 S0#23 S0#24 38.023529 $L=0.505 $W=0.17
RfC25 S0#22 S0#25 119.726128 $L=1.665 $W=0.17
RfC26 S0#25 S0#26 4.059692 $L=0.0845 $W=0.33
ReC27 S0 S0#27 0.125000 $L=0.26 $W=0.26
RjC28 S0#23 S0#27 152.000000 $A=0.0289
RiC29 S0#19 S0#22 15.000000 $A=0.0289
RiC30 S0#16 S0#24 15.000000 $A=0.0289
RiC31 S0#21 S0#26 15.000000 $A=0.0289
*
*Instance Section
*
MX29/M0	MX29/M0#d	MX29/M0#g	MX29/M0#s	VSS	nfet_01v8
+ L=1.5e-07	W=4.2e-07
MX28/M0	MX28/M0#d	MX28/M0#g	MX28/M0#s	VSS	nfet_01v8
+ L=1.5e-07	W=4.2e-07
MX27/M0	MX27/M0#d	MX27/M0#g	MX27/M0#s	VSS	nfet_01v8
+ L=1.5e-07	W=4.2e-07
MX25/M0	MX25/M0#d	MX25/M0#g	MX25/M0#s	VSS	nfet_01v8
+ L=1.5e-07	W=4.2e-07
MX23/M0	MX23/M0#d	MX23/M0#g	MX23/M0#s	VSS	nfet_01v8
+ L=1.5e-07	W=4.2e-07
MX21/M0	MX21/M0#d	MX21/M0#g	MX21/M0#s	VSS	nfet_01v8
+ L=1.5e-07	W=4.2e-07
MX26/M0	MX26/M0#d	MX26/M0#g	MX26/M0#s	VDD	pfet_01v8_hvt
+ L=1.5e-07	W=5.4e-07
MX24/M0	MX24/M0#d	MX24/M0#g	MX24/M0#s	VDD	pfet_01v8_hvt
+ L=1.5e-07	W=6.2e-07
MX22/M0	MX22/M0#d	MX22/M0#g	MX22/M0#s	VDD	pfet_01v8_hvt
+ L=1.5e-07	W=5.4e-07
MX20/M0	MX20/M0#d	MX20/M0#g	MX20/M0#s	VDD	pfet_01v8_hvt
+ L=1.5e-07	W=5.4e-07
MM0	MM0#d	MM0#g	MM0#s	VDD	pfet_01v8_hvt	L=1.5e-07
+ W=5.4e-07
MM1	MM1#d	MM1#g	MM1#s	VDD	pfet_01v8_hvt	L=1.5e-07
+ W=5.4e-07
.ENDS
