*
*|DSPF 1.5
*
*|DATE "Fri Feb 28 13:11:25 2025"
*|VENDOR "Cadence Design Systems"
*|PROGRAM "Cadence Quantus Extraction"
*|VERSION "22.1.0-p089 Linux 64 bit - (Thu Jan 19 11:47:08 PST 2023)"
*|DESIGN "MX2X4_LP"
*|DIVIDER /
*|DELIMITER #
*|DeviceFingerDelim "@"
*|BUSBIT []
*|GLOBAL_TEMPERATURE 25
*|OPERATING_TEMPERATURE 25
** QRC_TECH_DIR /vols/wfo_devel/projects/reference_SKY130/tech/sky130_release_0.0.4/quantus/extraction/typical 
** HIERARCHICAL_SPLIT_PINS_DELIMITER '%'
** caps2d version: 10
*
.SUBCKT  MX2X4_LP A B S0 VDD VSS Y
*
*Net Section
*
*|GROUND_NET VSS
*
*|NET 18 9.76338e-17
*|I (MX22/M0#s MX22/M0 s X 0 1.9005 0.7100)
*|I (MX20/M0#d MX20/M0 d X 0 2.1795 0.7100)
*|S (18 2.0400 0.7200)
CJ1 18 VSS 1.71179e-17
CJ2 18 VSS#5 7.81026e-18
CJ3 18 MX28/M0#s 2.19205e-17
CJ4 18 VSS#14 7.04864e-18
RmwJ117 MX22/M0#s 18 0.001000 $W=1000000
RmwJ118 MX20/M0#d 18 0.001000 $W=1000000
*
*|NET 20 1.15763e-16
*|I (MX25/M0#s MX25/M0 s X 0 1.9005 3.3900)
*|I (MM1#s MM1 s X 0 2.1795 3.3900)
*|S (20 2.0400 3.3850)
CJ5 20 VSS 1.05152e-17
RmwJ119 MX25/M0#s 20 0.001000 $W=1000000
RmwJ120 MM1#s 20 0.001000 $W=1000000
*
*|NET 14 9.20119e-17
*|I (MX30/M0#d MX30/M0 d X 0 1.0405 0.7100)
*|I (MX21/M0#s MX21/M0 s X 0 1.3195 0.7100)
*|S (14 1.1800 0.7200)
CI1 14 VSS 1.39102e-17
CI2 14 VSS#14 8.1241e-18
CI3 14 MX30/M0#s 2.38565e-17
CI4 14 VSS#8 7.81484e-18
RmwI113 MX30/M0#d 14 0.001000 $W=1000000
RmwI114 MX21/M0#s 14 0.001000 $W=1000000
*
*|NET 16 1.03286e-16
*|I (MX29/M0#d MX29/M0 d X 0 1.0405 3.3900)
*|I (MM0#s MM0 s X 0 1.3195 3.3900)
*|S (16 1.1800 3.3850)
CI5 16 VSS 1.6044e-17
RmwI115 MX29/M0#d 16 0.001000 $W=1000000
RmwI116 MM0#s 16 0.001000 $W=1000000
*
*|NET B 6.43964e-16
*|P (B X 0 3.2350 1.8500)
*|I (MX20/M0#g MX20/M0 g X 0 2.2550 0.7100)
*|I (MM1#g MM1 g X 0 2.2550 3.3900)
*|S (B#8 2.2550 1.6250)
*|S (B#9 2.2550 1.4600)
*|S (B#10 3.2200 1.6250)
*|S (B#11 2.2550 1.6250)
*|S (B#12 3.2200 1.6250)
CB1 MM1#g VSS 1.00816e-17
CB2 MX20/M0#g VSS 1.96648e-17
CB3 B#11 VSS 1.97123e-17
CB4 B#10 VSS 1.68754e-17
CB5 B VSS 8.8085e-18
CB6 B MX24/M1#g 2.76713e-18
CB7 B#11 MX28/M0#g 2.56163e-18
CB8 MM1#g 2#29 1.66592e-18
CB9 MM1#g 2#27 1.48605e-18
CB10 MX20/M0#g MX22/M0#d 1.31748e-18
CB11 MM1#g MX25/M0#d 1.2971e-18
CB12 B MX28/M1#g 1.1641e-18
CB13 B 2#24 1.85592e-17
CB14 B 2#28 6.95077e-18
CB15 B 2#27 3.22211e-17
CB16 B#10 2#24 2.05946e-17
CB17 MX20/M0#g 2#28 3.69376e-18
CB18 B#11 2#27 3.37924e-17
CB19 MM1#g 2#25 3.45244e-18
CB20 B#10 MX28/M1#g 5.59024e-18
CB21 B#11 2#24 4.6327e-18
CB22 B#10 MX28/M0#g 6.02849e-18
CB23 B#11 2#25 1.89824e-17
CB24 B 1#19 3.31789e-18
CB25 B 1#18 3.30549e-18
CB26 B#11 1#18 1.94551e-17
CB27 B#10 Y#7 1.7799e-18
CB28 B Y 1.44496e-16
CB29 B Y#10 1.55009e-17
CB30 B Y#9 2.65512e-17
CB31 B#10 Y 9.06212e-18
CB32 B MX24/M0#d 6.26643e-18
CB33 B Y#6 5.82448e-18
CB34 B#10 Y#10 5.16391e-18
CB35 B Y#7 1.08211e-17
CB36 B#10 Y#6 2.4331e-17
CB37 MX20/M0#g VSS#14 3.08639e-18
CB38 B#10 VSS#14 2.08722e-18
CB39 MX20/M0#g VSS#4 1.93299e-18
CB40 B#11 VSS#14 4.13053e-18
CB41 MX20/M0#g MX28/M0#s 6.95795e-18
CB42 B MX28/M1#d 1.15452e-17
CB43 B#10 MX28/M1#d 1.63058e-17
CB44 B#11 MX28/M0#s 2.61524e-17
CB45 MX20/M0#g VSS#5 4.74867e-18
CB46 MM1#g VDD#15 3.03365e-18
CB47 B#10 MX24/M1#d 2.88126e-18
CB48 MM1#g VDD 1.12063e-17
CB49 MM1#g VDD#4 5.06085e-18
CB50 B MX24/M1#d 1.51696e-17
CB51 B VDD 3.46685e-18
CB52 MM1#g MX24/M0#s 8.42278e-18
RgB11 MM1#g B#8 548.312439 $L=1.765 $W=0.15
RgB12 B#8 B#9 34.134449 $L=0.1645 $W=0.27
RgB13 B#9 MX20/M0#g 241.044617 $L=0.75 $W=0.15
RfB14 B#10 B#11 72.658829 $L=0.965 $W=0.17
ReB15 B B#12 0.108173 $L=0.225 $W=0.26
RjB16 B#10 B#12 152.000000 $A=0.0289
RiB17 B#8 B#11 15.000000 $A=0.0289
*
*|NET 1 1.15458e-15
*|I (MX26/M0#d MX26/M0 d X 0 0.3995 0.7100)
*|I (MX21/M0#g MX21/M0 g X 0 1.3950 0.7100)
*|I (MX25/M0#g MX25/M0 g X 0 1.8250 3.3900)
*|I (MX23/M0#d MX23/M0 d X 0 0.3995 3.3900)
*|S (1 1.8250 3.3900)
*|S (1#8 1.3950 1.3000)
*|S (1#9 1.3950 1.4650)
*|S (1#10 1.8250 2.5345)
*|S (1#11 1.8250 2.3700)
*|S (1#13 0.2600 3.3900)
*|S (1#14 0.2600 3.0900)
*|S (1#15 0.2600 0.7600)
*|S (1#17 0.2600 0.7100)
*|S (1#18 1.3950 1.4650)
*|S (1#19 1.8250 2.3700)
*|S (1#20 0.2600 2.3700)
*|S (1#21 0.2600 3.0900)
*|S (1#22 0.2600 2.3700)
*|S (1#23 0.2600 0.7600)
CG1 MX23/M0#d VSS 9.55688e-19
CG2 MX21/M0#g VSS 2.05289e-17
CG3 MX26/M0#d VSS 1.01866e-17
CG4 1#23 VSS 5.03266e-17
CG5 1#22 VSS 2.00996e-17
CG6 1#21 VSS 5.32567e-18
CG7 1#19 VSS 1.74279e-17
CG8 1#18 VSS 3.35859e-17
CG9 1#20 VSS 2.05572e-18
CG10 1#14 VSS 1.29753e-18
CG11 1 VSS 2.92615e-18
CG12 1#19 20 5.34341e-18
CG13 1 20 6.79552e-18
CG14 MX21/M0#g 14 5.27282e-18
CG15 1#18 14 3.72265e-18
CG16 1#23 14 1.38706e-18
CG17 1#14 2#29 4.74719e-18
CG18 1 2#30 3.53397e-18
CG19 MX23/M0#d 2#30 2.17987e-18
CG20 MX21/M0#g 2#28 1.7933e-18
CG21 1#19 2#29 1.66683e-18
CG22 1#21 2 1.60724e-18
CG23 1#19 2#28 1.36885e-18
CG24 1#18 2#28 2.63484e-17
CG25 1#19 2#27 3.17242e-17
CG26 1#18 MX22/M0#d 8.06126e-18
CG27 1#19 MX25/M0#d 7.68092e-18
CG28 1#19 2#30 6.87275e-18
CG29 1#23 2#28 1.59154e-17
CG30 1#19 2#25 1.37695e-17
CG31 1 MX25/M0#d 6.79552e-18
CG32 MX21/M0#g MX22/M0#d 6.2356e-18
CG33 1#18 2#27 1.27119e-17
CG34 1#23 VSS#8 5.59044e-18
CG35 MX26/M0#d VSS#14 5.57859e-18
CG36 1#18 VSS#14 4.33385e-18
CG37 MX21/M0#g VSS#14 4.07982e-18
CG38 MX21/M0#g VSS#5 2.99781e-18
CG39 MX21/M0#g VSS#8 2.91866e-18
CG40 MX26/M0#d VSS#8 7.8164e-18
CG41 MX26/M0#d MX30/M0#s 1.82451e-17
CG42 1#23 VSS#14 2.39494e-17
CG43 1#23 MX30/M0#s 7.35448e-18
RgG74 MX21/M0#g 1#8 189.631287 $L=0.59 $W=0.15
RgG75 1#8 1#9 34.134449 $L=0.1645 $W=0.27
RgG76 1 1#10 274.784637 $L=0.855 $W=0.15
RgG77 1#10 1#11 34.134449 $L=0.1645 $W=0.27
RfG78 1#13 1#14 22.588236 $L=0.3 $W=0.17
RfG79 1#15 1#17 3.764706 $L=0.05 $W=0.17
RfG80 1#18 1#19 92.821373 $L=1.335 $W=0.17
RfG81 1#19 1#20 117.835289 $L=1.565 $W=0.17
ReG82 1#21 1#22 0.391304 $L=0.72 $W=0.23
ReG83 1#22 1#23 0.875000 $L=1.61 $W=0.23
RhG84 MX26/M0#d 1#17 15.000000 $A=0.0289
Rh_2_G85 MX23/M0#d 1#13 15.000000 $A=0.0289
RjG86 1#14 1#21 152.000000 $A=0.0289
RjG87 1#20 1#22 152.000000 $A=0.0289
RjG88 1#15 1#23 152.000000 $A=0.0289
RiG89 1#9 1#18 15.000000 $A=0.0289
RiG90 1#11 1#19 15.000000 $A=0.0289
RmwG91 MX25/M0#g 1 0.001000 $W=1000000
*
*|NET VSS 1.36558e-15
*|P (VSS X 0 2.4150 0.0050)
*|I (MX30/M0#s MX30/M0 s X 0 0.8895 0.7100)
*|I (MX28/M0#s MX28/M0 s X 0 2.6695 0.9200)
*|I (MX28/M1#d MX28/M1 d X 0 3.2505 0.9200)
*|I (MX26/M0#s MX26/M0 s X 0 0.5505 0.7100)
*|I (MX20/M0#s MX20/M0 s X 0 2.3305 0.7100)
*|S (VSS#2 3.3900 0.9200)
*|S (VSS#3 3.3900 0.1245)
*|S (VSS#4 2.5300 -0.0050)
*|S (VSS#5 2.0700 0.0000)
*|S (VSS#6 2.0700 0.0000)
*|S (VSS#8 0.4175 -0.0050)
*|S (VSS#9 0.7500 0.1195)
*|S (VSS#11 0.7500 0.7100)
*|S (VSS#13 2.5300 0.9200)
*|S (VSS#14 2.0700 0.0000)
RfE47 VSS#2 VSS#3 59.862656 $L=0.795 $W=0.17
RfE48 VSS#3 VSS#4 49.807419 $L=1.322 $W=0.25
RfE49 VSS#4 VSS#5 23.276810 $L=0.46 $W=0.25
RfE50 VSS#5 VSS#8 68.367149 $L=1.6525 $W=0.25
RfE51 VSS#8 VSS#9 5.144932 $L=0.1245 $W=0.835
RfE52 VSS#9 VSS#11 44.427361 $L=0.59 $W=0.17
RfE53 VSS#4 VSS#13 63.039207 $L=0.925 $W=0.17
ReE54 VSS VSS#14 0.107813 $L=0.345 $W=0.4
RhE55 MX28/M1#d VSS#2 7.500000 $A=0.0578
RhE56 MX30/M0#s VSS#11 15.000000 $A=0.0289
RhE57 MX28/M0#s VSS#13 7.500000 $A=0.0578
Rh_3_E58 VSS#6 VSS#5 1.875000 $A=0.2312
RjE59 VSS#5 VSS#14 19.000000 $A=0.2312
RmwE60 MX26/M0#s MX30/M0#s 0.001000 $W=1000000
RmwE61 MX20/M0#s MX28/M0#s 0.001000 $W=1000000
*
*|NET Y 1.10348e-15
*|P (Y X 0 3.6450 2.0650)
*|I (MX28/M0#d MX28/M0 d X 0 2.8205 0.9200)
*|I (MX28/M1#s MX28/M1 s X 0 3.0995 0.9200)
*|I (MX24/M0#d MX24/M0 d X 0 2.8205 3.0400)
*|I (MX24/M1#s MX24/M1 s X 0 3.0995 3.0400)
*|S (Y#1 2.9600 3.3800)
*|S (Y#3 2.9600 3.0400)
*|S (Y#5 2.9600 0.9200)
*|S (Y#6 2.9600 0.6650)
*|S (Y#7 2.9600 3.3800)
*|S (Y#8 3.6300 3.3800)
*|S (Y#9 3.6300 0.6650)
*|S (Y#10 2.9600 0.6650)
CF1 MX24/M0#d VSS 2.55353e-18
CF2 MX28/M0#d VSS 5.04419e-20
CF3 Y#10 VSS 6.17604e-18
CF4 Y#9 VSS 5.30978e-17
CF5 Y#7 VSS 3.49818e-18
CF6 Y#8 VSS 4.98718e-18
CF7 Y#6 VSS 6.48926e-19
CF8 Y VSS 3.56951e-17
CF9 MX24/M0#d 2#29 4.4261e-18
CF10 Y#7 2#24 3.99694e-18
CF11 Y#6 2#28 3.91615e-18
CF12 Y 2#24 2.88155e-18
CF13 Y 2#27 2.58747e-18
CF14 Y#10 MX28/M0#g 2.10276e-18
CF15 Y#7 2 1.95768e-18
CF16 Y#7 MX24/M1#g 1.93585e-18
CF17 Y#10 2#24 1.76607e-18
CF18 MX24/M0#d 2 1.72531e-17
CF19 Y#10 2#28 7.19214e-18
CF20 Y#8 2#29 7.09684e-18
CF21 MX24/M0#d MX24/M1#g 1.80331e-17
CF22 MX24/M0#d 2#24 2.48076e-17
CF23 Y#9 2#28 7.18404e-18
CF24 Y#6 MX28/M1#g 1.21226e-17
CF25 Y#7 2#29 1.54363e-17
CF26 Y#6 MX28/M0#g 1.16437e-17
CF27 Y#6 VSS#14 4.87007e-18
CF28 Y#10 VSS#3 4.46863e-18
CF29 Y#6 VSS#4 3.25505e-18
CF30 Y#6 VSS#3 3.06905e-18
CF31 Y#10 VSS#4 2.8556e-18
CF32 Y#9 MX28/M1#d 4.9838e-17
CF33 Y#10 MX28/M0#s 8.15102e-18
CF34 Y#6 MX28/M1#d 3.86145e-17
CF35 Y#9 VSS#3 6.34383e-18
CF36 Y#6 MX28/M0#s 4.20993e-17
CF37 Y#10 VSS#14 3.93312e-17
CF38 Y#9 VSS#14 3.64292e-17
RfF62 Y#1 Y#3 25.600000 $L=0.34 $W=0.17
RfF63 Y#5 Y#6 19.200001 $L=0.255 $W=0.17
ReF64 Y#7 Y#8 0.267814 $L=0.67 $W=0.29
ReF65 Y#8 Y 0.597556 $L=1.315 $W=0.26
ReF66 Y Y#9 0.638421 $L=1.4 $W=0.26
ReF67 Y#9 Y#10 0.267814 $L=0.67 $W=0.29
RhF68 MX28/M0#d Y#5 7.500000 $A=0.0578
Rh_2_F69 MX24/M0#d Y#3 5.000000 $A=0.0867
RjF70 Y#1 Y#7 152.000000 $A=0.0289
RjF71 Y#6 Y#10 152.000000 $A=0.0289
RmwF72 MX28/M1#s MX28/M0#d 0.001000 $W=1000000
RmwF73 MX24/M1#s MX24/M0#d 0.001000 $W=1000000
*
*|NET A 4.60265e-16
*|P (A X 0 0.9350 1.7700)
*|I (MX30/M0#g MX30/M0 g X 0 0.9650 0.7100)
*|I (MX29/M0#g MX29/M0 g X 0 0.9650 3.3900)
*|S (A#8 0.8550 1.7995)
*|S (A#9 0.8550 1.6350)
*|S (A#10 0.9400 1.4700)
*|S (A#11 0.9050 1.6350)
*|S (A#12 0.8550 1.6350)
*|S (A#13 0.9050 1.6350)
*|S (A#14 0.9200 1.6350)
*|S (A#15 0.9200 1.7700)
CA1 MX29/M0#g VSS 8.19259e-18
CA2 MX30/M0#g VSS 2.30056e-17
CA3 A#15 VSS 1.33392e-18
CA4 A#14 VSS 1.12856e-17
CA5 A#12 VSS 1.07054e-17
CA6 A#12 2#27 1.55231e-18
CA7 MX29/M0#g MX25/M0#d 1.43725e-18
CA8 A#14 2#28 1.00907e-17
CA9 A#12 1#23 2.08145e-18
CA10 MX30/M0#g MX26/M0#d 1.89726e-18
CA11 MX29/M0#g MX23/M0#d 1.60597e-18
CA12 A#14 1#23 2.79182e-17
CA13 A#15 1#19 6.66621e-18
CA14 A#14 1#18 1.05441e-17
CA15 MX29/M0#g 1#20 6.18872e-18
CA16 A#12 1#18 4.00538e-18
CA17 A#15 1#20 1.68408e-17
CA18 A#15 1#22 3.76689e-17
CA19 A#14 1#22 7.2509e-18
CA20 A#12 1#22 4.29864e-18
CA21 A#14 VSS#8 2.29786e-18
CA22 A#14 MX28/M0#s 1.87914e-18
CA23 MX30/M0#g VSS#8 5.00566e-18
CA24 A#12 VSS#14 2.59873e-18
CA25 A#12 MX30/M0#s 3.63704e-18
CA26 MX30/M0#g MX30/M0#s 6.47271e-18
CA27 A#14 VSS#14 1.17141e-17
CA28 MX30/M0#g VSS#14 4.00994e-18
CA29 A#14 MX30/M0#s 5.27573e-18
CA30 A#15 VDD 8.85748e-18
CA31 MX29/M0#g VDD 1.40067e-17
CA32 A#15 VDD#7 2.47448e-18
CA33 MX29/M0#g VDD#15 5.54472e-18
CA34 MX29/M0#g MX29/M0#s 8.04185e-18
CA35 A#15 MX29/M0#s 3.04555e-18
CA36 MX29/M0#g VDD#7 5.2727e-18
CA37 A#15 S0#21 1.47078e-17
CA38 A#12 S0 5.03845e-18
CA39 A#15 S0#22 1.4506e-17
CA40 A#12 S0#22 1.86604e-17
CA41 A#12 S0#21 1.48202e-17
CA42 A#15 S0 7.15928e-17
CA43 A#14 S0 3.62354e-17
RgA1 MX29/M0#g A#8 523.052734 $L=1.76 $W=0.15
RgA2 A#8 A#9 30.460598 $L=0.1645 $W=0.27
RgA3 A#9 A#10 29.410925 $L=0.1645 $W=0.27
RgA4 A#10 MX30/M0#g 244.257965 $L=0.76 $W=0.1
RfA5 A#11 A#12 3.764706 $L=0.05 $W=0.17
ReA6 A#13 A#14 0.001512 $L=0.015 $W=1.24
ReA7 A#15 A 0.001512 $L=0.015 $W=1.24
ReA8 A#14 A#15 0.064904 $L=0.135 $W=0.26
RjA9 A#11 A#13 152.000000 $A=0.0289
RiA10 A#9 A#12 15.000000 $A=0.0289
*
*|NET S0 7.99189e-16
*|P (S0 X 0 1.3950 2.0000)
*|I (MX26/M0#g MX26/M0 g X 0 0.4750 0.7100)
*|I (MX22/M0#g MX22/M0 g X 0 1.8250 0.7100)
*|I (MX23/M0#g MX23/M0 g X 0 0.4750 3.3900)
*|I (MM0#g MM0 g X 0 1.3950 3.3900)
*|S (S0#15 0.3750 2.0245)
*|S (S0#16 0.3750 1.8600)
*|S (S0#17 0.3750 1.6950)
*|S (S0#18 1.3350 2.0300)
*|S (S0#19 1.3350 2.1945)
*|S (S0#20 1.3800 2.0300)
*|S (S0#21 1.3350 2.0300)
*|S (S0#22 0.3750 1.8600)
*|S (S0#23 1.3800 2.0300)
CC1 MM0#g VSS 2.99617e-18
CC2 MX23/M0#g VSS 1.3954e-18
CC3 MX22/M0#g VSS 1.5405e-17
CC4 MX26/M0#g VSS 1.63141e-17
CC5 S0#22 VSS 2.88613e-17
CC6 S0#21 VSS 1.57818e-17
CC7 S0 VSS 8.8197e-18
CC8 MM0#g 16 6.77934e-18
CC9 S0 16 3.32725e-18
CC10 MX23/M0#g 16 7.59051e-19
CC11 S0#21 2#27 2.96299e-18
CC12 S0 2#25 1.89708e-18
CC13 MM0#g MX25/M0#d 6.79552e-18
CC14 MX22/M0#g 2#28 4.23776e-18
CC15 S0 2#30 8.22891e-18
CC16 S0 2#28 1.1783e-17
CC17 S0 2#27 5.8718e-17
CC18 MX22/M0#g MX22/M0#d 6.2356e-18
CC19 MM0#g 1#19 3.64302e-18
CC20 MX23/M0#g 1#14 3.37872e-18
CC21 S0#22 MX26/M0#d 2.41299e-18
CC22 MX26/M0#g 1#23 2.3312e-18
CC23 MX26/M0#g MX26/M0#d 8.59809e-18
CC24 MX23/M0#g MX23/M0#d 7.34508e-18
CC25 S0#21 1#19 6.01598e-17
CC26 MX22/M0#g 1#18 5.15031e-18
CC27 S0 1#19 4.34187e-17
CC28 S0#21 1#20 1.38525e-17
CC29 S0 1#18 2.95809e-17
CC30 S0#22 1#22 3.66582e-17
CC31 MX23/M0#g 1#20 8.28846e-18
CC32 S0 1#22 8.38809e-18
CC33 S0#21 1#18 1.22105e-17
CC34 S0#22 1#20 5.22942e-17
CC35 MX22/M0#g VSS#14 2.54593e-18
CC36 MX26/M0#g MX30/M0#s 6.97526e-18
CC37 MX22/M0#g VSS#5 5.93626e-18
CC38 MX26/M0#g VSS#14 5.06101e-18
CC39 MX26/M0#g VSS#8 5.45259e-18
CC40 S0 VSS#14 8.03437e-18
CC41 S0#21 VDD 3.66783e-18
CC42 MM0#g VDD#4 3.62498e-18
CC43 MM0#g VDD#7 3.41313e-18
CC44 MX23/M0#g VDD#7 7.06165e-18
CC45 S0 VDD#15 8.81105e-18
CC46 MM0#g VDD 1.62759e-17
CC47 MX23/M0#g MX29/M0#s 8.65214e-18
CC48 MX23/M0#g VDD 1.66145e-17
CC49 MM0#g VDD#15 4.35739e-18
CC50 MX23/M0#g VDD#15 5.54472e-18
CC51 S0 VDD 7.37853e-18
CC52 S0#22 VDD 5.21214e-18
RgC18 MX23/M0#g S0#15 447.539398 $L=1.525 $W=0.15
RgC19 S0#15 S0#16 38.857975 $L=0.1645 $W=0.27
RgC20 S0#16 S0#17 29.410927 $L=0.1645 $W=0.27
RgC21 S0#17 MX26/M0#g 325.432739 $L=1.145 $W=0.15
RgC22 MX22/M0#g S0#18 524.997375 $L=1.7 $W=0.15
RgC23 S0#18 S0#19 29.410927 $L=0.1645 $W=0.27
RgC24 S0#19 MM0#g 384.037964 $L=1.195 $W=0.15
RfC25 S0#20 S0#21 3.388236 $L=0.045 $W=0.17
RfC26 S0#21 S0#22 79.434082 $L=1.13 $W=0.17
ReC27 S0 S0#23 0.014423 $L=0.03 $W=0.26
RjC28 S0#20 S0#23 152.000000 $A=0.0289
RiC29 S0#18 S0#21 15.000000 $A=0.0289
RiC30 S0#16 S0#22 15.000000 $A=0.0289
*
*|NET VDD 1.21225e-15
*|P (VDD X 0 2.4150 4.1450)
*|I (MX29/M0#s MX29/M0 s X 0 0.8895 3.3900)
*|I (MX24/M0#s MX24/M0 s X 0 2.6695 3.0400)
*|I (MX24/M1#d MX24/M1 d X 0 3.2505 3.0400)
*|I (MX23/M0#s MX23/M0 s X 0 0.5505 3.3900)
*|I (MM1#d MM1 d X 0 2.3305 3.3900)
*|S (VDD#1 4.1395 4.1400)
*|S (VDD#2 3.3900 4.1400)
*|S (VDD#3 2.5300 4.1400)
*|S (VDD#4 2.0700 4.1400)
*|S (VDD#5 2.0700 4.1400)
*|S (VDD#7 0.7500 4.1400)
*|S (VDD#8 0.0000 4.1400)
*|S (VDD#10 3.3900 3.0400)
*|S (VDD#12 2.5300 3.0400)
*|S (VDD#14 0.7500 3.3900)
*|S (VDD#15 2.0700 4.1400)
CD1 MX24/M1#d VSS 6.78124e-18
CD2 MX24/M0#s VSS 5.95901e-18
CD3 MX29/M0#s VSS 5.44051e-19
CD4 VDD#15 VSS 1.72607e-18
CD5 VDD#7 VSS 2.12313e-18
CD6 VDD#3 VSS 3.28932e-18
CD7 VDD#2 VSS 1.39912e-19
CD8 VDD VSS 5.11885e-20
CD9 VDD#15 20 5.65084e-18
CD10 VDD#4 20 7.57425e-18
CD11 MX24/M0#s 20 2.22481e-17
CD12 MX29/M0#s 16 2.68559e-17
CD13 VDD#7 16 8.56632e-18
CD14 VDD#15 16 8.40014e-18
CD15 VDD#15 MX25/M0#d 5.51451e-18
CD16 VDD#2 MX24/M1#g 5.35471e-18
CD17 VDD 2 5.0707e-18
CD18 MX24/M0#s MX24/M1#g 4.99415e-18
CD19 VDD 2#25 4.55423e-18
CD20 MX24/M1#d 2 4.43252e-18
CD21 VDD#15 MX24/M1#g 3.49327e-18
CD22 MX29/M0#s 2#30 3.16143e-18
CD23 VDD#15 2#24 2.34714e-18
CD24 VDD#4 2#28 2.10056e-18
CD25 VDD 2#24 9.08107e-18
CD26 VDD#15 2#30 2.77826e-17
CD27 MX24/M0#s 2 1.98601e-17
CD28 VDD#4 2#30 6.74131e-18
CD29 MX24/M0#s 2#25 1.58632e-17
CD30 MX24/M0#s 2#27 1.55476e-17
CD31 MX24/M0#s 2#29 1.91617e-17
CD32 VDD 2#29 1.99808e-17
CD33 VDD 2#27 1.71139e-17
CD34 VDD#4 2#29 6.26324e-18
CD35 VDD#3 2 7.17149e-18
CD36 VDD#15 2 6.29139e-18
CD37 VDD#4 MX25/M0#d 8.92633e-18
CD38 VDD#15 2#29 2.65476e-17
CD39 VDD MX24/M1#g 1.41562e-17
CD40 MX24/M1#d MX24/M1#g 2.17174e-17
CD41 VDD#15 1#19 4.12871e-18
CD42 MX29/M0#s 1#21 3.77816e-18
CD43 MX24/M0#s 1#19 3.47189e-18
CD44 MX24/M0#s 1#21 3.32379e-18
CD45 VDD#15 1 2.81323e-18
CD46 VDD#8 1#21 1.8531e-18
CD47 MX29/M0#s 1#14 6.02779e-18
CD48 VDD#15 1#21 1.35003e-17
CD49 VDD MX23/M0#d 1.4418e-17
CD50 VDD 1#22 2.92796e-17
CD51 VDD 1#21 5.22453e-17
CD52 VDD#4 1 8.51624e-18
CD53 MX29/M0#s MX23/M0#d 1.99407e-17
CD54 VDD#15 MX23/M0#d 6.55141e-18
CD55 VDD 1 1.6699e-17
CD56 VDD 1#20 3.32918e-17
CD57 VDD 1#14 1.03561e-17
CD58 MX29/M0#s 1#20 7.05581e-18
CD59 VDD 1#19 2.93413e-17
CD60 VDD#8 MX23/M0#d 7.6455e-18
CD61 VDD#15 1#20 6.46655e-18
CD62 VDD#15 MX24/M0#d 5.49116e-18
CD63 VDD#2 Y#7 4.28338e-18
CD64 VDD#3 MX24/M0#d 3.46701e-18
CD65 VDD#2 MX24/M0#d 3.43319e-18
CD66 VDD#3 Y#7 2.71681e-18
CD67 VDD#15 Y#8 2.95058e-17
CD68 MX24/M1#d Y 1.12803e-17
CD69 VDD#15 Y#7 3.15922e-17
CD70 VDD#2 Y#8 5.83643e-18
CD71 MX24/M0#s Y#7 7.08014e-18
CD72 VDD Y 3.00178e-17
CD73 MX24/M0#s MX24/M0#d 6.33111e-17
CD74 MX24/M1#d MX24/M0#d 5.95444e-17
CD75 MX24/M1#d Y#8 5.63162e-17
CD76 VDD Y#8 4.74328e-17
RfD31 VDD#1 VDD#2 38.099213 $L=0.7495 $W=0.25
RfD32 VDD#2 VDD#3 43.481621 $L=0.86 $W=0.25
RfD33 VDD#3 VDD#4 23.276812 $L=0.46 $W=0.25
RfD34 VDD#4 VDD#7 67.308815 $L=1.32 $W=0.25
RfD35 VDD#7 VDD#8 38.124809 $L=0.75 $W=0.25
RfD36 VDD#2 VDD#10 76.215675 $L=1.1 $W=0.17
RfD37 VDD#3 VDD#12 76.215675 $L=1.1 $W=0.17
RfD38 VDD#7 VDD#14 49.862736 $L=0.75 $W=0.17
ReD39 VDD VDD#15 0.107813 $L=0.345 $W=0.4
Rh_1_D40 VDD#5 VDD#4 1.875000 $A=0.2312
Rh_2_D41 MX24/M1#d VDD#10 5.000000 $A=0.0867
Rh_2_D42 MX24/M0#s VDD#12 5.000000 $A=0.0867
Rh_2_D43 MX29/M0#s VDD#14 15.000000 $A=0.0289
RjD44 VDD#4 VDD#15 19.000000 $A=0.2312
RmwD45 MX23/M0#s MX29/M0#s 0.001000 $W=1000000
RmwD46 MM1#d MX24/M0#s 0.001000 $W=1000000
*
*|NET 2 1.26924e-15
*|I (MX28/M0#g MX28/M0 g X 0 2.7450 0.9200)
*|I (MX28/M1#g MX28/M1 g X 0 3.1750 0.9200)
*|I (MX22/M0#d MX22/M0 d X 0 1.7495 0.7100)
*|I (MX21/M0#d MX21/M0 d X 0 1.4705 0.7100)
*|I (MX25/M0#d MX25/M0 d X 0 1.7495 3.3900)
*|I (MX24/M0#g MX24/M0 g X 0 2.7450 3.0400)
*|I (MX24/M1#g MX24/M1 g X 0 3.1750 3.0400)
*|I (MM0#d MM0 d X 0 1.4705 3.3900)
*|S (2 2.7450 3.0400)
*|S (2#15 3.1750 2.1450)
*|S (2#16 2.9600 2.1450)
*|S (2#17 2.7450 2.1450)
*|S (2#18 1.6100 3.3900)
*|S (2#21 1.6100 0.7600)
*|S (2#23 1.6100 0.7100)
*|S (2#24 2.9600 2.1450)
*|S (2#25 2.3250 2.1450)
*|S (2#26 2.3250 2.1450)
*|S (2#27 2.1200 2.1450)
*|S (2#28 1.6100 0.7600)
*|S (2#29 2.1200 3.3900)
*|S (2#30 1.6100 3.3900)
CH1 MX24/M1#g VSS 1.0638e-18
CH2 MX25/M0#d VSS 8.18193e-19
CH3 MX22/M0#d VSS 6.41416e-18
CH4 MX28/M1#g VSS 1.55444e-17
CH5 MX28/M0#g VSS 1.30054e-17
CH6 2#30 VSS 4.47389e-18
CH7 2#29 VSS 2.45928e-18
CH8 2#28 VSS 2.37486e-17
CH9 2#27 VSS 1.82056e-17
CH10 2#24 VSS 3.58656e-18
CH11 2#25 VSS 5.37097e-18
CH12 2 VSS 3.75424e-18
CH13 2#29 20 3.28968e-17
CH14 MX25/M0#d 20 2.29525e-17
CH15 MX22/M0#d 18 2.21438e-17
CH16 2#28 18 2.01574e-17
CH17 MX28/M0#g 18 1.43535e-18
CH18 2 20 1.78686e-18
CH19 MX22/M0#d 14 1.98753e-17
CH20 2#30 16 7.07764e-18
CH21 MX25/M0#d 16 2.44864e-17
CH22 2#29 16 9.90019e-19
CH23 2#28 14 8.04842e-18
CH24 MX22/M0#d VSS#14 5.1691e-18
CH25 MX28/M1#g VSS#3 5.12127e-18
CH26 MX28/M0#g VSS#4 5.09841e-18
CH27 MX28/M1#g MX28/M0#s 3.55418e-18
CH28 MX28/M1#g VSS#14 3.23603e-18
CH29 2#27 MX28/M0#s 3.16292e-18
CH30 MX28/M0#g MX28/M1#d 3.03795e-18
CH31 2#28 MX30/M0#s 1.62681e-18
CH32 MX28/M0#g MX28/M0#s 1.36903e-17
CH33 MX28/M0#g VSS#14 6.22118e-18
CH34 MX28/M1#g MX28/M1#d 1.50887e-17
CH35 2#28 MX28/M0#s 1.83604e-17
CH36 MX22/M0#d VSS#5 9.41004e-18
CH37 2#28 VSS#5 9.25042e-18
CH38 2#28 VSS#14 4.36382e-17
RgH92 MX24/M1#g 2#15 283.616638 $L=0.895 $W=0.15
RgH93 2#15 2#16 25.081852 $L=0.215 $W=0.27
RgH94 2#16 2#17 25.081852 $L=0.215 $W=0.27
RgH95 2#17 MX28/M0#g 389.656647 $L=1.225 $W=0.15
RgH96 2#15 MX28/M1#g 389.656647 $L=1.225 $W=0.15
RgH97 2#17 2 283.616638 $L=0.895 $W=0.15
RfH98 2#21 2#23 3.764706 $L=0.05 $W=0.17
RfH99 2#24 2#25 47.811764 $L=0.635 $W=0.17
ReH100 2#26 2#27 0.060276 $L=0.205 $W=0.23
ReH101 2#27 2#28 0.914789 $L=1.895 $W=0.23
ReH102 2#27 2#29 0.628570 $L=1.245 $W=0.23
ReH103 2#29 2#30 0.205787 $L=0.51 $W=0.29
RhH104 MX22/M0#d 2#23 15.000000 $A=0.0289
Rh_2_H105 MX25/M0#d 2#18 15.000000 $A=0.0289
RjH106 2#25 2#26 152.000000 $A=0.0289
RjH107 2#21 2#28 152.000000 $A=0.0289
RjH108 2#18 2#30 152.000000 $A=0.0289
RiH109 2#16 2#24 15.000000 $A=0.0289
RmwH110 MX21/M0#d MX22/M0#d 0.001000 $W=1000000
RmwH111 MX24/M0#g 2 0.001000 $W=1000000
RmwH112 MM0#d MX25/M0#d 0.001000 $W=1000000
*
*Instance Section
*
MX30/M0	MX30/M0#d	MX30/M0#g	MX30/M0#s	VSS	nfet_01v8
+ L=1.5e-07	W=4.2e-07
MX28/M0	MX28/M0#d	MX28/M0#g	MX28/M0#s	VSS	nfet_01v8
+ L=1.5e-07	W=8.4e-07
MX28/M1	MX28/M1#d	MX28/M1#g	MX28/M1#s	VSS	nfet_01v8
+ L=1.5e-07	W=8.4e-07
MX26/M0	MX26/M0#d	MX26/M0#g	MX26/M0#s	VSS	nfet_01v8
+ L=1.5e-07	W=4.2e-07
MX22/M0	MX22/M0#d	MX22/M0#g	MX22/M0#s	VSS	nfet_01v8
+ L=1.5e-07	W=4.2e-07
MX21/M0	MX21/M0#d	MX21/M0#g	MX21/M0#s	VSS	nfet_01v8
+ L=1.5e-07	W=4.2e-07
MX20/M0	MX20/M0#d	MX20/M0#g	MX20/M0#s	VSS	nfet_01v8
+ L=1.5e-07	W=4.2e-07
MX29/M0	MX29/M0#d	MX29/M0#g	MX29/M0#s	VDD	pfet_01v8_hvt
+ L=1.5e-07	W=5.4e-07
MX25/M0	MX25/M0#d	MX25/M0#g	MX25/M0#s	VDD	pfet_01v8_hvt
+ L=1.5e-07	W=5.4e-07
MX24/M0	MX24/M0#d	MX24/M0#g	MX24/M0#s	VDD	pfet_01v8_hvt
+ L=1.5e-07	W=1.24e-06
MX24/M1	MX24/M1#d	MX24/M1#g	MX24/M1#s	VDD	pfet_01v8_hvt
+ L=1.5e-07	W=1.24e-06
MX23/M0	MX23/M0#d	MX23/M0#g	MX23/M0#s	VDD	pfet_01v8_hvt
+ L=1.5e-07	W=5.4e-07
MM0	MM0#d	MM0#g	MM0#s	VDD	pfet_01v8_hvt	L=1.5e-07
+ W=5.4e-07
MM1	MM1#d	MM1#g	MM1#s	VDD	pfet_01v8_hvt	L=1.5e-07
+ W=5.4e-07
.ENDS
