*
*|DSPF 1.5
*
*|DATE "Fri Feb 28 13:09:31 2025"
*|VENDOR "Cadence Design Systems"
*|PROGRAM "Cadence Quantus Extraction"
*|VERSION "22.1.0-p089 Linux 64 bit - (Thu Jan 19 11:47:08 PST 2023)"
*|DESIGN "MX4X1_LP"
*|DIVIDER /
*|DELIMITER #
*|DeviceFingerDelim "@"
*|BUSBIT []
*|GLOBAL_TEMPERATURE 25
*|OPERATING_TEMPERATURE 25
** QRC_TECH_DIR /vols/wfo_devel/projects/reference_SKY130/tech/sky130_release_0.0.4/quantus/extraction/typical 
** HIERARCHICAL_SPLIT_PINS_DELIMITER '%'
** caps2d version: 10
*
.SUBCKT  MX4X1_LP A B C D S0 S1 VDD VSS Y
*
*Net Section
*
*|GROUND_NET VSS
*
*|NET S1 7.47484e-16
*|P (S1 X 0 4.1550 1.4900)
*|I (MX60/M0#g MX60/M0 g X 0 4.3450 0.8000)
*|I (MX58/M0#g MX58/M0 g X 0 5.7250 0.8000)
*|I (MX78/M0#g MX78/M0 g X 0 5.2950 3.2800)
*|I (MX54/M0#g MX54/M0 g X 0 4.3450 3.2800)
*|S (S1#15 5.2950 2.0900)
*|S (S1#16 4.3450 2.0900)
*|S (S1#17 4.3450 1.9700)
*|S (S1#18 4.3450 1.8050)
*|S (S1#19 4.3450 1.2900)
*|S (S1#20 4.3450 1.1250)
*|S (S1#21 4.3450 1.9700)
*|S (S1#22 4.1250 1.9700)
*|S (S1#23 4.3450 1.2900)
*|S (S1#24 4.1250 1.2900)
*|S (S1#25 4.1250 1.2900)
*|S (S1#26 4.1250 1.9700)
CF1 MX54/M0#g VSS 2.72612e-18
CF2 MX78/M0#g VSS 4.60587e-18
CF3 MX58/M0#g VSS 1.61359e-17
CF4 MX60/M0#g VSS 2.06966e-17
CF5 S1#26 VSS 5.06813e-18
CF6 S1#23 VSS 8.628e-18
CF7 S1#21 VSS 6.61045e-18
CF8 S1#24 VSS 7.49448e-18
CF9 S1#22 VSS 1.19744e-17
CF10 S1 VSS 1.07711e-17
CF11 MX78/M0#g 25#12 3.27061e-18
CF12 MX78/M0#g 25#17 2.79362e-18
CF13 S1#21 25#17 2.17952e-18
CF14 MX58/M0#g 25#17 1.12537e-18
CF15 MX78/M0#g MX78/M0#d 4.79091e-18
CF16 MX58/M0#g MX77/M0#d 6.49438e-18
CF17 MX54/M0#g 4#14 3.59e-18
CF18 S1#26 4#20 3.12849e-18
CF19 MX78/M0#g 4#19 2.77723e-18
CF20 S1 MX60/M0#d 2.18253e-18
CF21 MX60/M0#g 4#23 1.37533e-18
CF22 MX78/M0#g MX54/M0#d 1.34326e-18
CF23 MX54/M0#g 4#21 1.29599e-18
CF24 S1#21 4#22 1.05935e-17
CF25 S1#21 4#20 1.98449e-17
CF26 MX54/M0#g MX54/M0#d 5.25617e-18
CF27 S1#23 MX60/M0#d 8.43504e-18
CF28 S1#23 4#20 1.98449e-17
CF29 S1#26 4#22 5.93e-17
CF30 S1 4#23 4.7146e-17
CF31 MX60/M0#g MX60/M0#d 7.13214e-18
CF32 S1 4#22 4.77224e-17
CF33 S1#23 4#23 4.62431e-18
CF34 MX58/M0#g 4#18 7.33239e-18
CF35 S1#23 4#22 6.86467e-18
CF36 S1 4#20 5.70801e-18
CF37 MX54/M0#g 3#14 2.74665e-18
CF38 S1#24 3#15 2.0607e-18
CF39 MX58/M0#g 3#16 1.42961e-18
CF40 MX78/M0#g MX76/M0#d 9.17291e-19
CF41 MX58/M0#g MX58/M0#s 7.39551e-18
CF42 S1 3#15 2.8866e-17
CF43 MX78/M0#g 3#13 6.52435e-18
CF44 S1#26 3#14 9.35967e-18
CF45 S1#26 3#15 4.72898e-18
CF46 S1#23 2#20 3.07859e-18
CF47 MX60/M0#g MX77/M0#s 1.75453e-18
CF48 S1#21 2#19 1.53726e-18
CF49 MX58/M0#g MX77/M0#s 1.35276e-18
CF50 MX54/M0#g MX78/M0#s 1.34326e-18
CF51 S1#21 2#20 1.31568e-18
CF52 MX54/M0#g 2#9 6.22812e-18
CF53 S1#23 MX77/M0#s 4.52931e-18
CF54 S1#22 2#9 2.69604e-17
CF55 S1#26 2#9 1.06178e-17
CF56 S1#21 2#9 2.65805e-17
CF57 MX78/M0#g 2#9 3.87965e-18
CF58 MX78/M0#g MX78/M0#s 5.25617e-18
CF59 S1#23 VSS#18 2.63559e-18
CF60 MX58/M0#g MX67/M0#s 2.23615e-18
CF61 S1#23 VSS#3 1.45437e-18
CF62 MX58/M0#g VSS#2 5.74683e-18
CF63 S1 MX60/M0#s 1.96362e-17
CF64 MX60/M0#g VSS#3 4.87612e-18
CF65 MX60/M0#g VSS#18 4.8201e-18
CF66 MX58/M0#g VSS#18 4.8201e-18
CF67 S1#24 MX60/M0#s 2.22736e-17
CF68 MX60/M0#g MX60/M0#s 7.53544e-18
CF69 S1 VSS#18 1.51452e-17
CF70 MX78/M0#g VDD#3 2.88787e-18
CF71 MX78/M0#g VDD#2 2.86861e-18
CF72 MX54/M0#g VDD#18 2.59032e-18
CF73 MX78/M0#g VDD#18 2.59032e-18
CF74 S1#26 MX63/M0#s 2.29033e-18
CF75 MX78/M0#g VDD 7.15562e-18
CF76 MX54/M0#g MX63/M0#s 9.10442e-18
CF77 MX54/M0#g VDD#3 4.25449e-18
CF78 MX54/M0#g VDD 5.41182e-18
RgF65 MX58/M0#g S1#15 508.309814 $L=1.72 $W=0.15
RgF66 S1#15 S1#16 248.508362 $L=0.93 $W=0.15
RgF67 S1#16 S1#17 32.526371 $L=0.12 $W=0.27
RgF68 S1#17 S1#18 29.410925 $L=0.1645 $W=0.27
RgF69 S1#18 S1#19 146.690369 $L=0.515 $W=0.15
RgF70 S1#19 S1#20 34.134449 $L=0.1645 $W=0.27
RgF71 S1#20 MX60/M0#g 104.477959 $L=0.325 $W=0.15
RgF72 S1#15 MX78/M0#g 380.541687 $L=1.19 $W=0.15
RgF73 S1#16 MX54/M0#g 387.503235 $L=1.19 $W=0.15
RfF74 S1#21 S1#22 16.564707 $L=0.22 $W=0.17
RfF75 S1#23 S1#24 16.564707 $L=0.22 $W=0.17
ReF76 S1 S1#25 0.096154 $L=0.2 $W=0.26
ReF77 S1 S1#26 0.230769 $L=0.48 $W=0.26
RjF78 S1#24 S1#25 152.000000 $A=0.0289
RjF79 S1#22 S1#26 152.000000 $A=0.0289
RiF80 S1#17 S1#21 15.000000 $A=0.0289
RiF81 S1#19 S1#23 15.000000 $A=0.0289
*
*|NET C 5.87353e-16
*|P (C X 0 2.3150 1.6000)
*|I (MX56/M0#g MX56/M0 g X 0 2.6250 0.8000)
*|I (MX62/M0#g MX62/M0 g X 0 2.6250 3.2800)
*|S (C#8 2.6250 1.6300)
*|S (C#9 2.6250 1.4650)
*|S (C#10 2.6250 1.6300)
*|S (C#11 2.3000 1.6300)
*|S (C#12 2.3000 1.6300)
CC1 MX62/M0#g VSS 1.21723e-17
CC2 MX56/M0#g VSS 2.43589e-17
CC3 C#10 VSS 1.24979e-17
CC4 C#11 VSS 1.21343e-17
CC5 C VSS 1.31562e-17
CC6 MX56/M0#g MX71/M0#d 1.31748e-18
CC7 C 3#15 7.34129e-18
CC8 C#10 3#15 4.97966e-18
CC9 C#11 2#18 2.69105e-18
CC10 MX62/M0#g 2#10 3.44385e-18
CC11 C 2#18 4.98039e-17
CC12 C 2#16 4.7947e-17
CC13 C 2#10 9.31395e-18
CC14 C#11 2#16 4.14397e-18
CC15 C#11 1#31 1.11253e-18
CC16 C#11 1#27 3.56983e-18
CC17 C 1#28 1.49614e-17
CC18 C 1#27 6.15305e-18
CC19 C#11 1#28 2.63843e-17
CC20 C#10 1#27 3.20034e-17
CC21 MX56/M0#g MX56/M0#s 7.15597e-18
CC22 MX56/M0#g VSS#7 3.64084e-18
CC23 C MX56/M0#s 1.33745e-17
CC24 C VSS#18 1.06452e-17
CC25 MX56/M0#g VSS#18 4.8201e-18
CC26 MX62/M0#g VDD 1.26982e-17
CC27 MX62/M0#g VDD#7 4.07063e-18
CC28 MX62/M0#g MX62/M0#s 8.66249e-18
CC29 MX62/M0#g VDD#18 5.21861e-18
CC30 C#11 S0#42 1.16005e-17
CC31 C S0#49 6.58242e-17
CC32 C S0#48 1.9264e-17
CC33 C S0#42 1.04784e-17
CC34 C#10 S0#49 1.06558e-17
CC35 C#11 S0#43 1.83537e-17
CC36 MX56/M0#g S0#42 6.9216e-18
CC37 MX62/M0#g S0#40 5.15706e-18
CC38 C S0#43 1.28415e-17
CC39 C#10 S0#42 3.20034e-17
RgC16 MX62/M0#g C#8 511.359100 $L=1.65 $W=0.15
RgC17 C#8 C#9 34.134449 $L=0.1645 $W=0.27
RgC18 C#9 MX56/M0#g 213.731293 $L=0.665 $W=0.15
RfC19 C#10 C#11 24.470589 $L=0.325 $W=0.17
ReC20 C C#12 0.014423 $L=0.03 $W=0.26
RjC21 C#11 C#12 152.000000 $A=0.0289
RiC22 C#8 C#10 15.000000 $A=0.0289
*
*|NET 2 2.56441e-15
*|I (MX77/M0#s MX77/M0 s X 0 5.2195 0.8000)
*|I (MX70/M0#d MX70/M0 d X 0 1.4105 0.8000)
*|I (MX68/M0#d MX68/M0 d X 0 1.6895 0.8000)
*|I (MX78/M0#s MX78/M0 s X 0 5.2195 3.2800)
*|I (MX72/M0#d MX72/M0 d X 0 1.4105 3.2800)
*|I (MX64/M0#d MX64/M0 d X 0 1.6895 3.2800)
*|S (2 1.5500 3.3850)
*|S (2#3 1.5500 3.2800)
*|S (2#4 1.5500 0.8500)
*|S (2#6 1.5500 0.8000)
*|S (2#8 5.0800 3.2800)
*|S (2#9 5.0800 2.9100)
*|S (2#10 1.7650 2.3100)
*|S (2#11 5.0800 1.0050)
*|S (2#13 5.0800 0.8000)
*|S (2#14 1.5500 3.3850)
*|S (2#15 1.7650 3.3850)
*|S (2#16 1.7650 2.3100)
*|S (2#17 1.7650 0.8500)
*|S (2#18 1.5500 0.8500)
*|S (2#19 5.0800 2.9100)
*|S (2#20 5.0800 1.0050)
CK1 MX72/M0#d VSS 1.34668e-18
CK2 MX78/M0#s VSS 3.17263e-18
CK3 MX70/M0#d VSS 6.10764e-18
CK4 MX77/M0#s VSS 9.0384e-18
CK5 2#20 VSS 1.42761e-17
CK6 2#19 VSS 6.03393e-18
CK7 2#18 VSS 1.15762e-17
CK8 2#16 VSS 3.23671e-18
CK9 2#14 VSS 9.42388e-18
CK10 2#10 VSS 1.55998e-17
CK11 2#9 VSS 1.35959e-17
CK12 2#14 29 8.53204e-18
CK13 2#18 27 8.03707e-18
CK14 2#14 33 1.66316e-17
CK15 2#18 31 1.27928e-17
CK16 MX70/M0#d 27 1.91852e-17
CK17 MX72/M0#d 33 2.51171e-17
CK18 MX70/M0#d 31 1.90715e-17
CK19 MX72/M0#d 29 2.44759e-17
CK20 MX77/M0#s 25#20 6.39584e-18
CK21 2#20 MX77/M0#d 6.05327e-18
CK22 2#19 25#12 5.20711e-18
CK23 2#9 25#19 4.18514e-18
CK24 2#19 25#17 3.80451e-18
CK25 MX77/M0#s MX77/M0#d 3.30493e-17
CK26 2#9 25#12 3.03113e-17
CK27 2#19 25#18 8.9023e-17
CK28 2#20 25#19 3.76989e-17
CK29 2#20 25#20 8.90372e-17
CK30 2#19 25#19 3.95618e-17
CK31 MX78/M0#s MX78/M0#d 1.51632e-17
CK32 2#9 25#18 9.07776e-18
CK33 MX77/M0#s 4#23 6.08169e-18
CK34 2#20 MX60/M0#d 4.5101e-18
CK35 2#19 4#14 2.69577e-18
CK36 2#9 4#20 2.48349e-18
CK37 MX77/M0#s 4#22 1.80347e-18
CK38 2#9 4#14 1.78551e-17
CK39 2#9 4#19 1.3755e-17
CK40 2#9 4#21 2.55603e-17
CK41 MX77/M0#s MX77/M0#g 7.39551e-18
CK42 2#9 4#22 1.88691e-17
CK43 2#20 4#19 2.90565e-17
CK44 2#19 4#21 5.82394e-17
CK45 2#20 4#22 5.06727e-17
CK46 MX77/M0#s MX60/M0#d 1.66758e-17
CK47 2#19 4#22 2.9561e-17
CK48 2#20 4#23 3.49062e-17
CK49 MX78/M0#s MX54/M0#d 1.07816e-17
CK50 MX77/M0#s 4#19 1.75458e-17
CK51 2#9 3#13 7.23627e-18
CK52 2#18 3#15 5.19658e-18
CK53 2#19 3#13 5.19267e-17
CK54 2#10 3#14 2.17814e-17
CK55 MX78/M0#s 3#13 1.49662e-17
CK56 MX77/M0#s VSS#3 7.32864e-18
CK57 MX77/M0#s VSS#18 5.58537e-18
CK58 2#20 VSS#3 5.54372e-18
CK59 MX70/M0#d VSS#18 5.34191e-18
CK60 2#18 VSS#7 4.96865e-18
CK61 2#18 MX56/M0#s 4.20591e-18
CK62 MX70/M0#d VSS#8 3.62342e-18
CK63 MX70/M0#d VSS#7 3.60004e-18
CK64 2#18 VSS#18 3.24896e-17
CK65 2#20 VSS#18 2.15763e-17
RfK152 2 2#3 7.905882 $L=0.105 $W=0.17
RfK153 2#4 2#6 3.764706 $L=0.05 $W=0.17
RfK154 2#8 2#9 27.858824 $L=0.37 $W=0.17
RfK155 2#9 2#10 289.128174 $L=3.915 $W=0.17
RfK156 2#11 2#13 15.435293 $L=0.205 $W=0.17
ReK157 2#14 2#15 0.078632 $L=0.215 $W=0.29
ReK158 2#15 2#16 0.540963 $L=1.075 $W=0.23
ReK159 2#16 2#17 0.750203 $L=1.46 $W=0.23
ReK160 2#17 2#18 0.078632 $L=0.215 $W=0.29
ReK161 2#19 2#20 1.035326 $L=1.905 $W=0.23
RhK162 MX70/M0#d 2#6 15.000000 $A=0.0289
RhK163 MX77/M0#s 2#13 15.000000 $A=0.0289
Rh_2_K164 MX72/M0#d 2#3 15.000000 $A=0.0289
Rh_2_K165 MX78/M0#s 2#8 15.000000 $A=0.0289
RjK166 2 2#14 152.000000 $A=0.0289
RjK167 2#10 2#16 152.000000 $A=0.0289
RjK168 2#4 2#18 152.000000 $A=0.0289
RjK169 2#9 2#19 76.000000 $A=0.0578
RjK170 2#11 2#20 76.000000 $A=0.0578
RmwK171 MX68/M0#d MX70/M0#d 0.001000 $W=1000000
RmwK172 MX64/M0#d MX72/M0#d 0.001000 $W=1000000
*
*|NET Y 5.30902e-16
*|P (Y X 0 6.9150 2.2000)
*|I (MX67/M0#d MX67/M0 d X 0 6.7505 0.8000)
*|I (MX66/M0#d MX66/M0 d X 0 6.7505 3.2400)
*|S (Y#2 6.8900 3.2400)
*|S (Y#3 6.8900 2.9450)
*|S (Y#4 6.8900 1.0050)
*|S (Y#6 6.8900 0.8000)
*|S (Y#7 6.8900 1.0050)
*|S (Y#8 6.8900 2.9450)
CI1 MX67/M0#d VSS 2.31386e-17
CI2 Y#8 VSS 1.63069e-18
CI3 Y#7 VSS 5.39157e-17
CI4 Y#3 VSS 2.79258e-18
CI5 Y VSS 1.35538e-17
CI6 Y#3 25 1.19278e-17
CI7 Y#7 MX67/M0#g 2.72242e-18
CI8 Y#3 25#16 4.08392e-18
CI9 MX67/M0#d MX67/M0#g 8.5065e-18
CI10 MX67/M0#d 25#16 3.99119e-18
CI11 Y#8 25 3.81139e-18
CI12 Y 25#16 3.3491e-17
CI13 Y#7 4#18 1.04236e-17
CI14 MX67/M0#d 3#16 3.61588e-18
CI15 Y 3#16 5.4768e-18
CI16 MX67/M0#d MX58/M0#s 4.49663e-18
CI17 Y 3#13 1.18427e-17
CI18 Y#8 3#13 3.86615e-17
CI19 Y#7 3#16 3.42471e-17
CI20 Y#3 3#9 5.302e-18
CI21 Y#7 MX58/M0#s 4.21785e-18
CI22 Y#8 3#9 4.22791e-18
CI23 Y#3 3#13 5.35528e-18
CI24 Y#7 VSS#1 2.55936e-18
CI25 Y#7 MX67/M0#s 7.97216e-18
CI26 MX67/M0#d VSS#18 6.03795e-18
CI27 Y#7 VSS#2 3.61408e-18
CI28 MX67/M0#d VSS#2 3.90073e-18
CI29 Y#7 VSS#18 2.26694e-17
CI30 MX67/M0#d MX67/M0#s 2.30192e-17
RfI122 Y#2 Y#3 22.211765 $L=0.295 $W=0.17
RfI123 Y#4 Y#6 15.435293 $L=0.205 $W=0.17
ReI124 Y Y#7 0.574519 $L=1.195 $W=0.26
ReI125 Y Y#8 0.358173 $L=0.745 $W=0.26
RhI126 MX67/M0#d Y#6 15.000000 $A=0.0289
Rh_2_I127 MX66/M0#d Y#2 15.000000 $A=0.0289
RjI128 Y#4 Y#7 76.000000 $A=0.0578
RjI129 Y#3 Y#8 76.000000 $A=0.0578
*
*|NET 4 1.23047e-15
*|I (MX77/M0#g MX77/M0 g X 0 5.2950 0.8000)
*|I (MX60/M0#d MX60/M0 d X 0 4.4205 0.8000)
*|I (MX76/M0#g MX76/M0 g X 0 5.7250 3.2800)
*|I (MX54/M0#d MX54/M0 d X 0 4.4205 3.2800)
*|S (4 5.7250 3.2800)
*|S (4#8 4.9995 1.5200)
*|S (4#9 4.8650 1.6300)
*|S (4#10 6.1550 1.6300)
*|S (4#11 6.1550 1.7945)
*|S (4#13 4.5600 3.2800)
*|S (4#14 4.5600 3.0900)
*|S (4#15 4.5600 0.8500)
*|S (4#17 4.5600 0.8000)
*|S (4#18 6.1550 1.6300)
*|S (4#19 4.8650 1.6300)
*|S (4#20 4.5600 1.6300)
*|S (4#21 4.5600 3.0900)
*|S (4#22 4.5600 1.6300)
*|S (4#23 4.5600 0.8500)
CM1 MX54/M0#d VSS 1.83475e-18
CM2 MX60/M0#d VSS 2.53696e-18
CM3 MX77/M0#g VSS 2.24757e-17
CM4 4#23 VSS 2.41877e-18
CM5 4#22 VSS 5.75658e-18
CM6 4#21 VSS 4.09598e-18
CM7 4#19 VSS 2.29239e-17
CM8 4#18 VSS 2.39252e-17
CM9 4#20 VSS 1.41993e-17
CM10 4#14 VSS 2.41706e-18
CM11 4 VSS 5.99766e-18
CM12 4#19 25#19 5.81778e-18
CM13 4#18 25#19 5.79168e-18
CM14 4#19 25#20 5.12902e-18
CM15 4#18 25#20 5.11372e-18
CM16 4 25#17 4.92992e-18
CM17 4 MX78/M0#d 4.79091e-18
CM18 4 25#12 3.27061e-18
CM19 4#18 25#17 4.42761e-17
CM20 4#19 MX77/M0#d 1.05616e-17
CM21 4#19 25#17 1.83508e-17
CM22 4#18 25#16 2.68981e-17
CM23 4#18 MX77/M0#d 1.04934e-17
CM24 MX77/M0#g MX77/M0#d 6.49438e-18
CM25 MX60/M0#d VSS#3 6.01954e-18
CM26 4#23 MX60/M0#s 5.50298e-18
CM27 MX60/M0#d VSS#18 5.476e-18
CM28 4#23 VSS#3 4.99237e-18
CM29 MX77/M0#g VSS#18 4.8201e-18
CM30 MX77/M0#g VSS#3 2.87341e-18
CM31 4#23 VSS#18 1.74471e-17
CM32 4#19 VSS#18 7.96759e-18
CM33 4#18 VSS#18 8.53056e-18
CM34 MX60/M0#d MX60/M0#s 1.97511e-17
RgM191 MX77/M0#g 4#8 304.918488 $L=1.015 $W=0.15
RgM192 4#8 4#9 30.946972 $L=0.1345 $W=0.35
RgM193 4#10 4#11 29.410927 $L=0.1645 $W=0.27
RgM194 4#11 4 553.579407 $L=1.855 $W=0.15
RfM195 4#13 4#14 14.305882 $L=0.19 $W=0.17
RfM196 4#15 4#17 3.764706 $L=0.05 $W=0.17
RfM197 4#18 4#19 97.129410 $L=1.29 $W=0.17
RfM198 4#19 4#20 22.964706 $L=0.305 $W=0.17
ReM199 4#21 4#22 0.793478 $L=1.46 $W=0.23
ReM200 4#22 4#23 0.423913 $L=0.78 $W=0.23
RhM201 MX60/M0#d 4#17 15.000000 $A=0.0289
Rh_2_M202 MX54/M0#d 4#13 15.000000 $A=0.0289
RjM203 4#14 4#21 152.000000 $A=0.0289
RjM204 4#20 4#22 152.000000 $A=0.0289
RjM205 4#15 4#23 152.000000 $A=0.0289
RiM206 4#10 4#18 15.000000 $A=0.0289
RiM207 4#9 4#19 15.000000 $A=0.0289
RmwM208 MX76/M0#g 4 0.001000 $W=1000000
*
*|NET 35 1.12635e-16
*|I (MX71/M0#s MX71/M0 s X 0 2.9795 0.8000)
*|I (MX56/M0#d MX56/M0 d X 0 2.7005 0.8000)
*|S (35 2.8400 0.8000)
CP1 35 VSS 1.86628e-17
CP2 35 VSS#7 6.01954e-18
CP3 35 MX56/M0#s 2.35364e-17
CP4 35 VSS#18 6.02184e-18
RmwP234 MX71/M0#s 35 0.001000 $W=1000000
RmwP235 MX56/M0#d 35 0.001000 $W=1000000
*
*|NET 37 1.46103e-16
*|I (MX73/M0#s MX73/M0 s X 0 2.9795 3.2800)
*|I (MX62/M0#d MX62/M0 d X 0 2.7005 3.2800)
*|S (37 2.8400 3.2350)
CP5 37 VSS 1.89925e-17
RmwP236 MX73/M0#s 37 0.001000 $W=1000000
RmwP237 MX62/M0#d 37 0.001000 $W=1000000
*
*|NET 39 1.07581e-16
*|I (MX69/M0#s MX69/M0 s X 0 3.5605 0.8000)
*|I (MX57/M0#d MX57/M0 d X 0 3.8395 0.8000)
*|S (39 3.7000 0.8000)
CP6 39 VSS 1.31386e-17
CP7 39 VSS#18 7.97535e-18
CP8 39 VSS#5 6.01954e-18
CP9 39 MX60/M0#s 2.2079e-17
RmwP238 MX69/M0#s 39 0.001000 $W=1000000
RmwP239 MX57/M0#d 39 0.001000 $W=1000000
*
*|NET 41 1.48814e-16
*|I (MX65/M0#s MX65/M0 s X 0 3.5605 3.2800)
*|I (MX63/M0#d MX63/M0 d X 0 3.8395 3.2800)
*|S (41 3.7000 3.2350)
CP10 41 VSS 1.25148e-17
RmwP240 MX65/M0#s 41 0.001000 $W=1000000
RmwP241 MX63/M0#d 41 0.001000 $W=1000000
*
*|NET 1 1.31126e-15
*|I (MX71/M0#g MX71/M0 g X 0 3.0550 0.8000)
*|I (MX70/M0#g MX70/M0 g X 0 1.3350 0.8000)
*|I (MX59/M0#d MX59/M0 d X 0 0.3995 0.8000)
*|I (MX65/M0#g MX65/M0 g X 0 3.4850 3.2800)
*|I (MX64/M0#g MX64/M0 g X 0 1.7650 3.2800)
*|I (MX53/M0#d MX53/M0 d X 0 0.3995 3.2800)
*|S (1 1.7650 3.2800)
*|S (1#15 1.7650 1.9700)
*|S (1#16 1.5500 1.9700)
*|S (1#17 1.3350 1.9700)
*|S (1#18 3.4850 1.9700)
*|S (1#19 3.2700 1.9700)
*|S (1#20 3.0550 1.9700)
*|S (1#22 0.2600 3.2800)
*|S (1#23 0.2600 3.0900)
*|S (1#24 0.2600 0.8500)
*|S (1#26 0.2600 0.8000)
*|S (1#27 3.2700 1.9700)
*|S (1#28 1.5500 1.9700)
*|S (1#29 0.2600 1.9700)
*|S (1#30 0.2600 3.0900)
*|S (1#31 0.2600 1.9700)
*|S (1#32 0.2600 0.8500)
CJ1 MX53/M0#d VSS 3.32561e-18
CJ2 MX65/M0#g VSS 1.5293e-17
CJ3 MX59/M0#d VSS 9.85697e-18
CJ4 MX70/M0#g VSS 2.53679e-17
CJ5 MX71/M0#g VSS 2.85844e-17
CJ6 1#32 VSS 3.26983e-17
CJ7 1#31 VSS 2.79408e-17
CJ8 1#30 VSS 1.9855e-18
CJ9 1#28 VSS 2.71905e-17
CJ10 1#27 VSS 2.67939e-17
CJ11 1#29 VSS 2.6485e-17
CJ12 1#23 VSS 7.8258e-19
CJ13 1 VSS 1.47289e-17
CJ14 MX71/M0#g MX71/M0#d 6.2356e-18
CJ15 MX65/M0#g 3 4.59009e-18
CJ16 MX65/M0#g 3#14 3.39266e-18
CJ17 1#27 3#14 1.00297e-17
CJ18 1#27 3#15 1.33502e-17
CJ19 MX70/M0#g MX70/M0#d 6.23058e-18
CJ20 MX65/M0#g 2#10 4.64632e-18
CJ21 1#30 2#14 3.50812e-18
CJ22 1 2#10 2.7899e-18
CJ23 1 MX72/M0#d 6.80836e-18
CJ24 1#28 2#16 2.13107e-17
CJ25 1#27 2#10 8.65886e-17
CJ26 1#28 2#10 8.34682e-17
CJ27 1#32 2#18 1.02236e-17
CJ28 1#32 MX59/M0#s 6.47717e-18
CJ29 MX59/M0#d VSS#18 5.53758e-18
CJ30 MX70/M0#g VSS#8 4.87612e-18
CJ31 MX71/M0#g VSS#18 4.8201e-18
CJ32 MX59/M0#d VSS#9 4.62862e-18
CJ33 1#29 VSS#18 4.07017e-18
CJ34 MX70/M0#g VSS#18 3.76163e-18
CJ35 1#32 VSS#9 3.18629e-18
CJ36 MX71/M0#g VSS#5 2.90942e-18
CJ37 1#28 VSS#18 2.05995e-18
CJ38 MX71/M0#g VSS#7 1.95045e-18
CJ39 1#32 VSS#8 1.7945e-18
CJ40 MX59/M0#d MX59/M0#s 2.02978e-17
CJ41 1#32 VSS#18 2.07771e-17
RgJ130 1 1#15 392.513397 $L=1.31 $W=0.15
RgJ131 1#15 1#16 39.939335 $L=0.215 $W=0.27
RgJ132 1#16 1#17 39.939335 $L=0.215 $W=0.27
RgJ133 1#17 MX70/M0#g 347.526733 $L=1.17 $W=0.15
RgJ134 MX65/M0#g 1#18 392.513397 $L=1.31 $W=0.15
RgJ135 1#18 1#19 39.939335 $L=0.215 $W=0.27
RgJ136 1#19 1#20 39.939335 $L=0.215 $W=0.27
RgJ137 1#20 MX71/M0#g 347.526733 $L=1.17 $W=0.15
RfJ138 1#22 1#23 14.305882 $L=0.19 $W=0.17
RfJ139 1#24 1#26 3.764706 $L=0.05 $W=0.17
RfJ140 1#27 1#28 129.505890 $L=1.72 $W=0.17
RfJ141 1#28 1#29 97.129410 $L=1.29 $W=0.17
ReJ142 1#30 1#31 0.608696 $L=1.12 $W=0.23
ReJ143 1#31 1#32 0.608696 $L=1.12 $W=0.23
RhJ144 MX59/M0#d 1#26 15.000000 $A=0.0289
Rh_2_J145 MX53/M0#d 1#22 15.000000 $A=0.0289
RjJ146 1#23 1#30 152.000000 $A=0.0289
RjJ147 1#29 1#31 152.000000 $A=0.0289
RjJ148 1#24 1#32 152.000000 $A=0.0289
RiJ149 1#19 1#27 15.000000 $A=0.0289
RiJ150 1#16 1#28 15.000000 $A=0.0289
RmwJ151 MX64/M0#g 1 0.001000 $W=1000000
*
*|NET B 5.7595e-16
*|P (B X 0 2.3150 3.0300)
*|I (MX52/M0#g MX52/M0 g X 0 2.1950 0.8000)
*|I (MM0#g MM0 g X 0 2.1950 3.2800)
*|S (B#8 2.1950 2.6500)
*|S (B#9 2.1950 2.4850)
*|S (B#10 2.3000 2.6500)
*|S (B#11 2.1950 2.6500)
*|S (B#12 2.3000 2.6500)
CB1 MM0#g VSS 3.78869e-18
CB2 MX52/M0#g VSS 2.90152e-17
CB3 B#11 VSS 5.7345e-18
CB4 B VSS 1.04326e-17
CB5 MM0#g 33 7.72091e-18
CB6 B 33 1.35403e-17
CB7 B#11 33 2.50126e-17
CB8 B#12 3#14 3.47817e-18
CB9 B 3#14 2.54073e-17
CB10 B MX72/M0#d 2.79428e-18
CB11 MM0#g MX72/M0#d 1.39411e-18
CB12 B#11 2#16 1.4288e-17
CB13 B#12 2#14 5.99781e-18
CB14 B#12 2#16 3.52887e-17
CB15 B#11 2#10 6.18593e-17
CB16 B 2#14 4.71222e-17
CB17 B#12 2#10 6.97372e-18
CB18 MX52/M0#g VSS#7 4.87612e-18
CB19 MX52/M0#g MX56/M0#s 7.16043e-18
CB20 MX52/M0#g VSS#18 3.53791e-18
CB21 B VDD#7 2.83675e-18
CB22 B#11 VDD#18 2.71416e-18
CB23 B MX63/M0#s 2.59246e-18
CB24 B#12 VDD 3.53273e-18
CB25 B MX61/M0#s 3.80394e-18
CB26 B MX62/M0#s 4.52458e-17
CB27 MM0#g VDD#7 3.77064e-18
CB28 B VDD#18 2.82732e-17
CB29 MM0#g VDD 9.27204e-18
CB30 MM0#g MX62/M0#s 8.70099e-18
CB31 MM0#g VDD#18 2.9228e-18
CB32 B#11 MX62/M0#s 1.50223e-17
CB33 B#11 VDD 1.05185e-17
CB34 B VDD 1.28436e-17
CB35 B#12 S0#48 3.93525e-17
CB36 B#11 S0#48 3.13509e-18
CB37 B#11 S0#40 1.14497e-17
CB38 MX52/M0#g S0#43 7.73945e-18
CB39 B#12 S0#40 3.113e-18
CB40 B#11 S0#37 9.20745e-18
CB41 B#12 C 3.15437e-17
CB42 B#11 C 2.93604e-18
RgB9 MM0#g B#8 183.599075 $L=0.63 $W=0.15
RgB10 B#8 B#9 34.134449 $L=0.1645 $W=0.27
RgB11 B#9 MX52/M0#g 541.491272 $L=1.685 $W=0.15
RfB12 B#10 B#11 7.905882 $L=0.105 $W=0.17
ReB13 B B#12 0.182692 $L=0.38 $W=0.26
RjB14 B#10 B#12 152.000000 $A=0.0289
RiB15 B#8 B#11 15.000000 $A=0.0289
*
*|NET VSS 2.35075e-15
*|P (VSS X 0 3.1850 0.0050)
*|I (MX67/M0#s MX67/M0 s X 0 6.5995 0.8000)
*|I (MX60/M0#s MX60/M0 s X 0 4.2695 0.8000)
*|I (MX59/M0#s MX59/M0 s X 0 0.5505 0.8000)
*|I (MX57/M0#s MX57/M0 s X 0 3.9905 0.8000)
*|I (MX56/M0#s MX56/M0 s X 0 2.5495 0.8000)
*|I (MX55/M0#s MX55/M0 s X 0 0.8295 0.8000)
*|I (MX52/M0#s MX52/M0 s X 0 2.2705 0.8000)
*|S (VSS#1 7.3595 0.0000)
*|S (VSS#2 6.4600 0.0000)
*|S (VSS#3 4.1300 0.0000)
*|S (VSS#4 3.6800 0.0000)
*|S (VSS#5 3.6800 0.0000)
*|S (VSS#7 2.4100 0.0000)
*|S (VSS#8 0.6900 0.0000)
*|S (VSS#9 0.0000 0.0000)
*|S (VSS#11 6.4600 0.8000)
*|S (VSS#13 4.1300 0.8000)
*|S (VSS#15 2.4100 0.8000)
*|S (VSS#17 0.6900 0.8000)
*|S (VSS#18 3.6800 0.0000)
RfH102 VSS#1 VSS#2 45.779209 $L=0.8995 $W=0.25
RfH103 VSS#2 VSS#3 118.745628 $L=2.33 $W=0.25
RfH104 VSS#3 VSS#4 22.764811 $L=0.45 $W=0.25
RfH105 VSS#4 VSS#7 64.748810 $L=1.27 $W=0.25
RfH106 VSS#7 VSS#8 87.513618 $L=1.72 $W=0.25
RfH107 VSS#8 VSS#9 35.052811 $L=0.69 $W=0.25
RfH108 VSS#2 VSS#11 53.627445 $L=0.8 $W=0.17
RfH109 VSS#3 VSS#13 53.627445 $L=0.8 $W=0.17
RfH110 VSS#7 VSS#15 53.627445 $L=0.8 $W=0.17
RfH111 VSS#8 VSS#17 53.627445 $L=0.8 $W=0.17
ReH112 VSS#18 VSS 0.154687 $L=0.495 $W=0.4
RhH113 MX67/M0#s VSS#11 15.000000 $A=0.0289
RhH114 MX60/M0#s VSS#13 15.000000 $A=0.0289
RhH115 MX56/M0#s VSS#15 15.000000 $A=0.0289
RhH116 MX59/M0#s VSS#17 15.000000 $A=0.0289
Rh_3_H117 VSS#5 VSS#4 1.000000 $A=0.4335
RjH118 VSS#4 VSS#18 10.133333 $A=0.4335
RmwH119 MX57/M0#s MX60/M0#s 0.001000 $W=1000000
RmwH120 MX55/M0#s MX59/M0#s 0.001000 $W=1000000
RmwH121 MX52/M0#s MX56/M0#s 0.001000 $W=1000000
*
*|NET VDD 1.8964e-15
*|P (VDD X 0 3.2800 4.1450)
*|I (MX66/M0#s MX66/M0 s X 0 6.5995 3.2400)
*|I (MX63/M0#s MX63/M0 s X 0 3.9905 3.2800)
*|I (MX62/M0#s MX62/M0 s X 0 2.5495 3.2800)
*|I (MX61/M0#s MX61/M0 s X 0 0.8295 3.2800)
*|I (MX54/M0#s MX54/M0 s X 0 4.2695 3.2800)
*|I (MX53/M0#s MX53/M0 s X 0 0.5505 3.2800)
*|I (MM0#d MM0 d X 0 2.2705 3.2800)
*|S (VDD#1 7.3595 4.1400)
*|S (VDD#2 6.4600 4.1400)
*|S (VDD#3 4.1300 4.1400)
*|S (VDD#4 3.6800 4.1400)
*|S (VDD#5 3.6800 4.1400)
*|S (VDD#7 2.4100 4.1400)
*|S (VDD#8 0.6900 4.1400)
*|S (VDD#9 0.0000 4.1400)
*|S (VDD#11 6.4600 3.2400)
*|S (VDD#13 4.1300 3.2800)
*|S (VDD#15 2.4100 3.2800)
*|S (VDD#17 0.6900 3.2800)
*|S (VDD#18 3.6800 4.1400)
CG1 MX61/M0#s VSS 1.76158e-18
CG2 MX62/M0#s VSS 1.83649e-18
CG3 MX63/M0#s VSS 2.22489e-18
CG4 VDD#18 VSS 1.32082e-17
CG5 VDD#8 VSS 5.52051e-18
CG6 VDD#7 VSS 2.33492e-18
CG7 VDD#3 VSS 1.54137e-18
CG8 VDD#2 VSS 4.34129e-18
CG9 VDD#1 VSS 2.18196e-18
CG10 VDD#9 VSS 3.73932e-19
CG11 VDD#5 VSS 2.23915e-18
CG12 VDD VSS 1.43657e-17
CG13 VDD#7 37 6.06011e-18
CG14 VDD#5 41 6.13168e-18
CG15 VDD#18 41 4.48317e-18
CG16 VDD 41 2.44462e-18
CG17 MX62/M0#s 37 3.22799e-17
CG18 VDD 37 3.79279e-18
CG19 MX63/M0#s 41 2.89896e-17
CG20 VDD#18 37 6.43535e-18
CG21 VDD 29 3.68284e-18
CG22 MX61/M0#s 29 3.03997e-17
CG23 MX62/M0#s 33 2.7966e-17
CG24 VDD#7 33 6.06011e-18
CG25 VDD#18 33 7.89282e-18
CG26 VDD#8 29 6.06011e-18
CG27 VDD#18 29 7.41882e-18
CG28 VDD 33 4.72998e-18
CG29 VDD#18 25 5.48428e-18
CG30 VDD#18 25#16 5.10252e-18
CG31 VDD#18 MX78/M0#d 4.75949e-18
CG32 VDD 25#18 1.0532e-17
CG33 VDD 25#12 8.8694e-18
CG34 MX66/M0#s 25#16 8.1612e-18
CG35 VDD 25 1.19603e-17
CG36 VDD#2 MX78/M0#d 7.48577e-18
CG37 MX66/M0#s 25 1.35399e-17
CG38 VDD#3 MX54/M0#d 6.1314e-18
CG39 VDD#2 4 5.77573e-18
CG40 VDD#18 MX54/M0#d 4.46871e-18
CG41 VDD 4#14 4.37948e-18
CG42 MX66/M0#s 4 2.62531e-18
CG43 VDD 4#21 7.93882e-18
CG44 MX63/M0#s 4#21 6.96733e-18
CG45 VDD 4 7.05539e-18
CG46 MX63/M0#s 4#14 1.17361e-17
CG47 MX63/M0#s MX54/M0#d 1.68027e-17
CG48 VDD#5 3 7.38183e-18
CG49 VDD#3 3#14 6.37945e-18
CG50 VDD#2 MX76/M0#d 6.21801e-18
CG51 VDD#18 MX76/M0#d 4.75949e-18
CG52 MX62/M0#s 3#14 4.59803e-18
CG53 MX63/M0#s 3#14 2.79956e-17
CG54 VDD 3#14 1.36258e-17
CG55 VDD 3#13 3.65377e-17
CG56 VDD 3#9 1.2636e-17
CG57 MX66/M0#s 3#13 1.5107e-17
CG58 VDD#2 3#13 1.34125e-17
CG59 VDD#18 3#14 1.03271e-16
CG60 MX66/M0#s 3#9 1.11329e-17
CG61 VDD#18 3#13 1.13612e-16
CG62 VDD#5 3#14 1.32062e-17
CG63 MX66/M0#s MX76/M0#d 1.22844e-17
CG64 VDD#3 3#13 1.02118e-17
CG65 VDD#3 MX78/M0#s 7.48577e-18
CG66 VDD#7 2#14 6.51765e-18
CG67 VDD#18 MX72/M0#d 5.10792e-18
CG68 VDD#18 MX78/M0#s 4.75949e-18
CG69 MX62/M0#s 2#14 3.92036e-18
CG70 MX62/M0#s 2#10 3.74853e-18
CG71 VDD#8 MX72/M0#d 3.63746e-18
CG72 VDD#7 MX72/M0#d 3.61399e-18
CG73 MX61/M0#s 2#14 3.42641e-18
CG74 VDD#8 2#14 2.86034e-18
CG75 VDD 2#19 1.33504e-17
CG76 VDD#18 2#14 3.41715e-17
CG77 VDD 2#10 3.2267e-17
CG78 VDD 2#9 5.6209e-17
CG79 VDD#18 MX53/M0#d 6.00165e-18
CG80 VDD#7 1 5.53381e-18
CG81 VDD#5 MX65/M0#g 5.48543e-18
CG82 VDD 1#23 4.86112e-18
CG83 VDD#9 MX53/M0#d 4.65982e-18
CG84 VDD#18 1 2.88175e-18
CG85 VDD#18 MX65/M0#g 2.59032e-18
CG86 VDD#18 1#29 2.53998e-18
CG87 VDD#9 1#30 1.86732e-18
CG88 VDD MX53/M0#d 1.08956e-17
CG89 VDD 1#31 2.35004e-17
CG90 MX61/M0#s 1#30 7.11472e-18
CG91 VDD 1#30 2.81111e-17
CG92 VDD#18 1#30 1.37392e-17
CG93 MX61/M0#s MX53/M0#d 1.96578e-17
CG94 VDD 1 1.73591e-17
CG95 MX61/M0#s 1#23 1.17245e-17
CG96 VDD MX65/M0#g 7.74332e-18
CG97 VDD#1 Y#8 2.53604e-18
CG98 VDD#2 Y#8 3.56922e-18
CG99 VDD#2 Y#3 3.93469e-18
CG100 VDD Y 1.82259e-17
CG101 MX66/M0#s Y#3 3.21258e-17
CG102 VDD Y#8 4.85e-17
CG103 VDD Y#3 2.12638e-17
CG104 VDD#18 Y#8 2.21975e-17
CG105 MX66/M0#s Y#8 1.11331e-17
CG106 VDD#18 Y#3 6.21e-18
RfG82 VDD#1 VDD#2 45.779209 $L=0.8995 $W=0.25
RfG83 VDD#2 VDD#3 118.745628 $L=2.33 $W=0.25
RfG84 VDD#3 VDD#4 22.764811 $L=0.45 $W=0.25
RfG85 VDD#4 VDD#7 64.748810 $L=1.27 $W=0.25
RfG86 VDD#7 VDD#8 87.513618 $L=1.72 $W=0.25
RfG87 VDD#8 VDD#9 35.052811 $L=0.69 $W=0.25
RfG88 VDD#2 VDD#11 61.156857 $L=0.9 $W=0.17
RfG89 VDD#3 VDD#13 58.145092 $L=0.86 $W=0.17
RfG90 VDD#7 VDD#15 58.145092 $L=0.86 $W=0.17
RfG91 VDD#8 VDD#17 58.145092 $L=0.86 $W=0.17
ReG92 VDD#18 VDD 0.125000 $L=0.4 $W=0.4
Rh_1_G93 VDD#5 VDD#4 1.000000 $A=0.4335
Rh_2_G94 MX66/M0#s VDD#11 15.000000 $A=0.0289
Rh_2_G95 MX63/M0#s VDD#13 15.000000 $A=0.0289
Rh_2_G96 MX62/M0#s VDD#15 15.000000 $A=0.0289
Rh_2_G97 MX61/M0#s VDD#17 15.000000 $A=0.0289
RjG98 VDD#4 VDD#18 10.133333 $A=0.4335
RmwG99 MX54/M0#s MX63/M0#s 0.001000 $W=1000000
RmwG100 MX53/M0#s MX61/M0#s 0.001000 $W=1000000
RmwG101 MM0#d MX62/M0#s 0.001000 $W=1000000
*
*|NET 25 1.30674e-15
*|I (MX77/M0#d MX77/M0 d X 0 5.3705 0.8000)
*|I (MX67/M0#g MX67/M0 g X 0 6.6750 0.8000)
*|I (MX58/M0#d MX58/M0 d X 0 5.6495 0.8000)
*|I (MX78/M0#d MX78/M0 d X 0 5.3705 3.2800)
*|I (MX76/M0#s MX76/M0 s X 0 5.6495 3.2800)
*|I (MX66/M0#g MX66/M0 g X 0 6.6750 3.2400)
*|S (25 6.6750 3.2400)
*|S (25#8 6.6650 1.9700)
*|S (25#9 6.6650 1.8350)
*|S (25#11 5.5100 3.2800)
*|S (25#12 5.5100 2.9100)
*|S (25#13 5.5100 1.0050)
*|S (25#15 5.5100 0.8000)
*|S (25#16 6.6650 1.9700)
*|S (25#17 5.5100 1.9700)
*|S (25#18 5.5100 2.9100)
*|S (25#19 5.5100 1.9700)
*|S (25#20 5.5100 1.0050)
CN1 MX78/M0#d VSS 1.18947e-18
CN2 MX67/M0#g VSS 1.33242e-17
CN3 MX77/M0#d VSS 3.53627e-18
CN4 25#20 VSS 1.22623e-17
CN5 25#19 VSS 1.12579e-18
CN6 25#18 VSS 3.48693e-18
CN7 25#16 VSS 3.41363e-17
CN8 25#17 VSS 2.12752e-17
CN9 25#12 VSS 9.1589e-20
CN10 25 VSS 1.03451e-17
CN11 MX77/M0#d VSS#18 5.58537e-18
CN12 25#20 VSS#2 5.54372e-18
CN13 MX67/M0#g VSS#18 4.8201e-18
CN14 MX67/M0#g VSS#2 4.29097e-18
CN15 MX67/M0#g MX67/M0#s 9.9381e-18
CN16 25#16 MX67/M0#s 8.1612e-18
CN17 MX77/M0#d VSS#2 7.32864e-18
CN18 25#20 VSS#18 2.15763e-17
RgN209 25 25#8 390.363403 $L=1.27 $W=0.15
RgN210 25#8 25#9 25.613562 $L=0.1345 $W=0.33
RgN211 25#9 MX67/M0#g 332.616516 $L=1.035 $W=0.15
RfN212 25#11 25#12 27.858824 $L=0.37 $W=0.17
RfN213 25#13 25#15 15.435293 $L=0.205 $W=0.17
RfN214 25#16 25#17 86.964706 $L=1.155 $W=0.17
ReN215 25#18 25#19 0.510870 $L=0.94 $W=0.23
ReN216 25#19 25#20 0.524457 $L=0.965 $W=0.23
RhN217 MX77/M0#d 25#15 15.000000 $A=0.0289
Rh_2_N218 MX78/M0#d 25#11 15.000000 $A=0.0289
RjN219 25#12 25#18 76.000000 $A=0.0578
RjN220 25#17 25#19 152.000000 $A=0.0289
RjN221 25#13 25#20 76.000000 $A=0.0578
RiN222 25#8 25#16 15.000000 $A=0.0289
RmwN223 MX58/M0#d MX77/M0#d 0.001000 $W=1000000
RmwN224 MX76/M0#s MX78/M0#d 0.001000 $W=1000000
RmwN225 MX66/M0#g 25 0.001000 $W=1000000
*
*|NET 27 1.03378e-16
*|I (MX70/M0#s MX70/M0 s X 0 1.2595 0.8000)
*|I (MX55/M0#d MX55/M0 d X 0 0.9805 0.8000)
*|S (27 1.1200 0.8000)
CO1 27 VSS 1.62387e-17
CO2 27 VSS#18 7.48732e-18
CO3 27 VSS#8 6.01954e-18
CO4 27 MX59/M0#s 2.41728e-17
RmwO226 MX70/M0#s 27 0.001000 $W=1000000
RmwO227 MX55/M0#d 27 0.001000 $W=1000000
*
*|NET 29 1.51988e-16
*|I (MX72/M0#s MX72/M0 s X 0 1.2595 3.2800)
*|I (MX61/M0#d MX61/M0 d X 0 0.9805 3.2800)
*|S (29 1.1200 3.2350)
CO5 29 VSS 4.8738e-18
RmwO228 MX72/M0#s 29 0.001000 $W=1000000
RmwO229 MX61/M0#d 29 0.001000 $W=1000000
*
*|NET 31 1.14426e-16
*|I (MX68/M0#s MX68/M0 s X 0 1.8405 0.8000)
*|I (MX52/M0#d MX52/M0 d X 0 2.1195 0.8000)
*|S (31 1.9800 0.8000)
CO6 31 VSS 1.47398e-17
CO7 31 MX56/M0#s 2.31984e-17
CO8 31 VSS#7 6.01954e-18
CO9 31 VSS#18 7.48732e-18
RmwO230 MX68/M0#s 31 0.001000 $W=1000000
RmwO231 MX52/M0#d 31 0.001000 $W=1000000
*
*|NET 33 1.4721e-16
*|I (MX64/M0#s MX64/M0 s X 0 1.8405 3.2800)
*|I (MM0#s MM0 s X 0 2.1195 3.2800)
*|S (33 1.9800 3.2350)
CO10 33 VSS 1.25382e-17
RmwO232 MX64/M0#s 33 0.001000 $W=1000000
RmwO233 MM0#s 33 0.001000 $W=1000000
*
*|NET A 5.75331e-16
*|P (A X 0 0.9350 2.4450)
*|I (MX55/M0#g MX55/M0 g X 0 0.9050 0.8000)
*|I (MX61/M0#g MX61/M0 g X 0 0.9050 3.2800)
*|S (A#8 0.8450 2.4745)
*|S (A#9 0.8450 2.3100)
*|S (A#10 0.8450 2.1450)
*|S (A#11 0.9150 2.3100)
*|S (A#12 0.8450 2.3100)
*|S (A#13 0.9150 2.3100)
CA1 MX61/M0#g VSS 1.46986e-18
CA2 MX55/M0#g VSS 2.20189e-17
CA3 A#13 VSS 1.37564e-17
CA4 A#12 VSS 2.26795e-18
CA5 A VSS 2.13418e-18
CA6 A 29 1.9061e-17
CA7 MX61/M0#g 29 7.72956e-18
CA8 A#13 2#10 1.68923e-18
CA9 MX61/M0#g MX72/M0#d 1.43417e-18
CA10 MX55/M0#g MX70/M0#d 1.31748e-18
CA11 A#12 2#10 7.72414e-18
CA12 A 2#14 3.52303e-18
CA13 A 1#23 2.62267e-18
CA14 MX55/M0#g MX59/M0#d 1.54951e-18
CA15 MX61/M0#g MX53/M0#d 1.13944e-18
CA16 A#13 1#28 1.17313e-17
CA17 A#13 1#31 2.90556e-17
CA18 A#13 1#29 1.24156e-17
CA19 A 1#31 1.12036e-17
CA20 A 1#30 3.28981e-17
CA21 A#12 1#31 1.20975e-17
CA22 A#12 1#28 1.8778e-17
CA23 A#12 1#29 3.69012e-17
CA24 MX55/M0#g VSS#18 4.8201e-18
CA25 MX55/M0#g VSS#8 3.62458e-18
CA26 MX55/M0#g MX59/M0#s 7.15597e-18
CA27 A VDD#8 1.7791e-18
CA28 A MX61/M0#s 8.79669e-18
CA29 MX61/M0#g VDD#18 3.9052e-18
CA30 MX61/M0#g VDD#8 3.75381e-18
CA31 MX61/M0#g MX61/M0#s 8.67114e-18
CA32 A VDD#18 1.3548e-17
CA33 A#12 VDD 1.37382e-17
CA34 A VDD 3.22696e-18
CA35 MX61/M0#g VDD 1.43491e-17
CA36 MX55/M0#g S0#45 1.79093e-18
CA37 A#13 S0 4.05686e-17
CA38 A#13 S0#44 4.63861e-18
CA39 A#13 S0#46 1.42315e-17
CA40 A S0#38 1.06353e-17
CA41 A S0#37 1.42461e-17
CA42 A#13 S0#45 3.54263e-18
CA43 MX55/M0#g S0#44 5.2777e-18
CA44 MX61/M0#g S0#37 4.11599e-18
CA45 A#12 S0#38 3.2419e-17
CA46 A#12 S0#37 2.32602e-17
CA47 A#12 S0 5.14105e-18
CA48 A S0 7.35765e-17
RgA1 MX61/M0#g A#8 258.717957 $L=0.805 $W=0.15
RgA2 A#8 A#9 38.857975 $L=0.1645 $W=0.27
RgA3 A#9 A#10 29.410927 $L=0.1645 $W=0.27
RgA4 A#10 MX55/M0#g 432.237946 $L=1.345 $W=0.15
RfA5 A#11 A#12 5.270588 $L=0.07 $W=0.17
ReA6 A A#13 0.064904 $L=0.135 $W=0.26
RjA7 A#11 A#13 152.000000 $A=0.0289
RiA8 A#9 A#12 15.000000 $A=0.0289
*
*|NET 3 2.15861e-15
*|I (MX71/M0#d MX71/M0 d X 0 3.1305 0.8000)