*
*|DSPF 1.5
*
*|DATE "Fri Feb 28 12:58:59 2025"
*|VENDOR "Cadence Design Systems"
*|PROGRAM "Cadence Quantus Extraction"
*|VERSION "22.1.0-p089 Linux 64 bit - (Thu Jan 19 11:47:08 PST 2023)"
*|DESIGN "NAND3X4_LP"
*|DIVIDER /
*|DELIMITER #
*|DeviceFingerDelim "@"
*|BUSBIT []
*|GLOBAL_TEMPERATURE 25
*|OPERATING_TEMPERATURE 25
** QRC_TECH_DIR /vols/wfo_devel/projects/reference_SKY130/tech/sky130_release_0.0.4/quantus/extraction/typical 
** HIERARCHICAL_SPLIT_PINS_DELIMITER '%'
** caps2d version: 10
*
.SUBCKT  NAND3X4_LP A B C VDD VSS Y
*
*Net Section
*
*|GROUND_NET VSS
*
*|NET VSS 1.00192e-15
*|P (VSS X 0 2.4150 0.0050)
*|I (MX18/M0#d MX18/M0 d X 0 0.5505 0.9350)
*|I (MX18/M1#s MX18/M1 s X 0 0.8295 0.9350)
*|S (VSS#1 1.8400 0.0000)
*|S (VSS#2 1.8400 0.0000)
*|S (VSS#4 0.6900 0.0000)
*|S (VSS#5 0.0000 0.0000)
*|S (VSS#7 0.6900 0.9350)
*|S (VSS#8 1.8400 0.0000)
RfE52 VSS#1 VSS#4 58.604813 $L=1.15 $W=0.25
RfE53 VSS#4 VSS#5 35.052811 $L=0.69 $W=0.25
RfE54 VSS#4 VSS#7 63.792149 $L=0.935 $W=0.17
ReE55 VSS VSS#8 0.179688 $L=0.575 $W=0.4
RhE56 MX18/M0#d VSS#7 7.500000 $A=0.0578
Rh_3_E57 VSS#2 VSS#1 2.142857 $A=0.2023
RjE58 VSS#1 VSS#8 21.714285 $A=0.2023
RmwE59 MX18/M1#s MX18/M0#d 0.001000 $W=1000000
*
*|NET C 6.9809e-16
*|P (C X 0 2.3150 2.1250)
*|I (MX19/M0#g MX19/M0 g X 0 2.7150 0.9350)
*|I (MX19/M1#g MX19/M1 g X 0 3.1450 0.9350)
*|I (MX20/M0#g MX20/M0 g X 0 2.7150 3.0400)
*|I (MX20/M1#g MX20/M1 g X 0 3.1450 3.0400)
*|S (C#15 3.1450 1.8600)
*|S (C#16 2.8850 1.8600)
*|S (C#17 2.6700 1.8600)
*|S (C#18 2.6700 1.7200)
*|S (C#19 2.6700 1.9995)
*|S (C#20 2.8850 1.8600)
*|S (C#21 2.3000 1.8600)
*|S (C#22 2.3000 1.8600)
CC1 MX20/M0#g VSS 1.53959e-18
CC2 MX19/M1#g VSS 1.26646e-17
CC3 MX19/M0#g VSS 2.29497e-17
CC4 C#22 VSS 1.49713e-17
CC5 C#20 VSS 2.38304e-17
CC6 C#21 VSS 1.81879e-17
CC7 C VSS 2.41654e-18
CC8 MX19/M0#g 12#9 2.92944e-18
CC9 MX19/M1#g 12#6 2.35519e-18
CC10 MX19/M0#g 12#6 1.21207e-17
CC11 C#21 12#6 5.14786e-18
CC12 C#22 12#6 4.54192e-18
CC13 C#22 12#11 1.61806e-17
CC14 C#21 12#11 5.33335e-18
CC15 C#20 12#10 4.51081e-18
CC16 MX19/M1#g 12#9 1.38733e-17
CC17 MX19/M1#g 12#10 3.52375e-18
CC18 C#20 12#6 6.22419e-18
CC19 C MX22/M0#d 2.29946e-18
CC20 MX19/M1#g Y#13 2.07351e-18
CC21 C#21 Y#18 1.5745e-18
CC22 C#21 Y#17 1.5393e-18
CC23 MX20/M0#g Y#17 1.36078e-18
CC24 MX20/M1#g Y 1.2198e-18
CC25 MX19/M0#g Y#13 1.15777e-18
CC26 C#20 Y#13 1.69794e-17
CC27 MX20/M1#g Y#17 4.79043e-18
CC28 C#22 Y 2.29104e-17
CC29 C#20 Y 2.37666e-17
CC30 MX20/M1#g Y#9 1.75623e-17
CC31 C#20 MX19/M0#d 1.08611e-17
CC32 C#20 Y#9 9.47498e-18
CC33 MX19/M0#g MX19/M0#d 1.1047e-17
CC34 MX20/M0#g Y#9 1.62554e-17
CC35 MX19/M1#g MX19/M0#d 1.20166e-17
CC36 C#22 Y#13 3.74923e-17
CC37 C Y 6.4142e-17
CC38 C Y#17 2.07227e-17
CC39 MX19/M1#g VSS#8 3.43835e-18
CC40 MX19/M0#g VSS#8 3.43835e-18
CC41 C#20 VSS#8 1.50355e-18
CC42 MX19/M1#g VSS#1 6.72658e-18
CC43 MX19/M0#g VSS#1 6.72658e-18
CC44 C#20 VDD#19 2.47661e-18
CC45 C#21 MX20/M0#s 3.8059e-18
CC46 MX20/M1#g MX20/M1#d 2.17857e-17
CC47 MX20/M0#g MX22/M1#d 5.0425e-18
CC48 MX20/M0#g MX20/M0#s 1.89325e-17
CC49 MX20/M0#g VDD#4 5.35471e-18
CC50 MX20/M1#g VDD#19 6.29139e-18
CC51 MX20/M1#g VDD 1.09983e-17
CC52 MX20/M0#g VDD#19 3.54546e-18
CC53 C MX20/M0#s 1.8435e-17
CC54 MX20/M1#g VDD#3 7.17149e-18
CC55 C MX22/M1#d 1.15327e-17
CC56 MX20/M0#g VDD 1.45594e-17
CC57 MX20/M1#g MX20/M0#s 3.50874e-18
CC58 MX20/M0#g MX20/M1#d 5.4732e-18
CC59 C VDD 9.2839e-18
CC60 C#20 MX20/M0#s 6.14064e-18
RgC21 MX20/M1#g C#15 375.024414 $L=1.18 $W=0.15
RgC22 C#15 C#16 31.932499 $L=0.26 $W=0.28
RgC23 C#16 C#17 16.439642 $L=0.185 $W=0.28
RgC24 C#17 C#18 34.205872 $L=0.1395 $W=0.24
RgC25 C#18 MX19/M0#g 252.296875 $L=0.785 $W=0.15
RgC26 C#15 MX19/M1#g 293.084412 $L=0.925 $W=0.15
RgC27 C#17 C#19 34.219917 $L=0.1395 $W=0.24
RgC28 C#19 MX20/M0#g 334.236877 $L=1.04 $W=0.15
RfC29 C#20 C#21 44.047058 $L=0.585 $W=0.17
ReC30 C C#22 0.127404 $L=0.265 $W=0.26
RjC31 C#21 C#22 152.000000 $A=0.0289
RiC32 C#16 C#20 7.500000 $A=0.0578
*
*|NET 12 8.38995e-16
*|I (MX21/M0#d MX21/M0 d X 0 1.4105 0.9350)
*|I (MX21/M1#s MX21/M1 s X 0 1.6895 0.9350)
*|I (MX19/M0#s MX19/M0 s X 0 2.6395 0.9350)
*|I (MX19/M1#d MX19/M1 d X 0 3.2205 0.9350)
*|S (12 1.5500 0.9350)
*|S (12#2 1.5500 0.9350)
*|S (12#3 1.5500 0.7550)
*|S (12#5 2.5000 0.9350)
*|S (12#6 2.5000 0.7550)
*|S (12#8 3.3600 0.9350)
*|S (12#9 3.3600 0.7550)
*|S (12#10 3.3600 0.7550)
*|S (12#11 2.5000 0.7550)
*|S (12#12 1.5500 0.7550)
CH1 MX19/M0#s VSS 3.37912e-19
CH2 12#12 VSS 5.20852e-18
CH3 12#11 VSS 7.93596e-18
CH4 12#10 VSS 4.08311e-17
CH5 12#3 VSS 4.04839e-18
CH6 12#6 VSS 8.51732e-19
CH7 12#9 VSS 2.47259e-17
CH8 12 VSS 2.26519e-18
CH9 12#11 VSS#1 1.27612e-17
CH10 12#12 VSS#8 3.59977e-17
CH11 12#6 VSS#8 5.84869e-18
CH12 12#3 VSS#1 9.30525e-18
CH13 12#11 VSS#8 4.57307e-17
CH14 12#9 VSS#1 9.30525e-18
CH15 12#10 VSS#8 3.51172e-17
CH16 12#12 VSS#1 7.80206e-18
CH17 12#6 VSS#1 9.30525e-18
CH18 12#3 VSS#8 5.68446e-18
CH19 12#10 VSS#1 9.08101e-18
CH20 12#9 VSS#8 6.37447e-18
RfH95 12#2 12#3 13.552942 $L=0.18 $W=0.17
RfH96 12#5 12#6 13.552942 $L=0.18 $W=0.17
RfH97 12#8 12#9 13.552942 $L=0.18 $W=0.17
ReH98 12#10 12#11 0.467391 $L=0.86 $W=0.23
ReH99 12#11 12#12 0.516304 $L=0.95 $W=0.23
RhH100 12 12#2 7.500000 $A=0.0578
RhH101 MX19/M0#s 12#5 7.500000 $A=0.0578
RhH102 MX19/M1#d 12#8 7.500000 $A=0.0578
RjH103 12#9 12#10 152.000000 $A=0.0289
RjH104 12#6 12#11 152.000000 $A=0.0289
RjH105 12#3 12#12 152.000000 $A=0.0289
RmwH106 MX21/M0#d 12 0.001000 $W=1000000
RmwH107 MX21/M1#s 12 0.001000 $W=1000000
*
*|NET A 5.73272e-16
*|P (A X 0 0.4750 2.2450)
*|I (MX18/M0#g MX18/M0 g X 0 0.4750 0.9350)
*|I (MX18/M1#g MX18/M1 g X 0 0.9050 0.9350)
*|I (MX17/M0#g MX17/M0 g X 0 0.4750 3.0400)
*|I (MX17/M1#g MX17/M1 g X 0 0.9050 3.0400)
*|S (A#15 0.9050 1.8600)
*|S (A#16 0.6900 1.8600)
*|S (A#17 0.4750 1.8600)
*|S (A#18 0.6900 1.8600)
*|S (A#19 0.4600 2.1100)
*|S (A#20 0.4600 2.1100)
CA1 MX17/M1#g VSS 2.9478e-19
CA2 MX17/M0#g VSS 7.96737e-19
CA3 MX18/M1#g VSS 1.54984e-17
CA4 MX18/M0#g VSS 1.50169e-17
CA5 A#20 VSS 2.26321e-17
CA6 A#18 VSS 2.37361e-17
CA7 A#19 VSS 7.50042e-18
CA8 A VSS 1.40477e-18
CA9 A#18 10#12 2.79585e-18
CA10 A#18 10#11 2.77781e-18
CA11 A#19 10#12 2.66953e-18
CA12 MX18/M0#g MX21/M0#s 2.64593e-18
CA13 MX18/M1#g MX18/M0#s 2.4842e-18
CA14 A#20 10#12 2.76775e-17
CA15 MX18/M1#g 10#11 4.4052e-18
CA16 MX18/M0#g MX18/M0#s 1.38733e-17
CA17 MX18/M1#g MX21/M0#s 1.05585e-17
CA18 A#19 MX18/M0#s 3.03314e-18
CA19 A#20 MX18/M0#s 3.28929e-18
CA20 MX17/M1#g 10#11 6.08932e-18
CA21 MX18/M0#g 10#12 2.94209e-18
CA22 A#19 Y#19 2.46372e-18
CA23 MX17/M0#g Y#19 2.98025e-18
CA24 MX17/M0#g MX17/M0#d 1.77882e-17
CA25 A#19 MX17/M0#d 1.4754e-17
CA26 MX17/M1#g Y#19 6.18201e-18
CA27 A Y#19 7.68619e-18
CA28 MX17/M1#g MX22/M0#d 3.16289e-18
CA29 A MX17/M0#d 1.74971e-17
CA30 MX17/M1#g MX17/M0#d 1.55802e-17
CA31 MX18/M0#g VSS#4 5.02251e-18
CA32 A#18 MX18/M0#d 1.38491e-17
CA33 MX18/M0#g VSS#8 4.52205e-18
CA34 MX18/M1#g MX18/M0#d 1.15e-17
CA35 MX18/M0#g MX18/M0#d 1.33354e-17
CA36 MX18/M1#g VSS#4 6.8183e-18
CA37 MX18/M1#g VSS#8 4.52205e-18
CA38 MX17/M1#g VDD#12 2.10271e-18
CA39 A VDD#15 1.75298e-18
CA40 A#20 VDD 1.69251e-18
CA41 A#19 MX17/M0#s 1.28126e-17
CA42 MX17/M1#g MX22/M0#s 1.65218e-17
CA43 A MX17/M0#s 3.41391e-17
CA44 MX17/M1#g VDD#19 3.54546e-18
CA45 MX17/M1#g VDD 1.13689e-17
CA46 MX17/M0#g VDD#19 4.11169e-18
CA47 A MX22/M0#s 5.87721e-18
CA48 MX17/M0#g VDD 1.34063e-17
CA49 MX17/M0#g MX17/M0#s 2.16978e-17
CA50 MX17/M0#g VDD#15 5.35471e-18
CA51 MX17/M0#g MX22/M0#s 4.25673e-18
CA52 MX17/M1#g MX17/M0#s 4.52159e-18
CA53 A VDD 2.5146e-17
CA54 A VDD#19 4.20462e-18
CA55 A#19 VDD 8.5162e-18
CA56 A#20 B#18 2.31648e-18
CA57 A#20 B#19 2.14427e-18
CA58 A#19 B 2.06871e-18
CA59 A#19 B#20 1.76283e-18
CA60 A#18 B#18 6.94171e-18
CA61 A#19 B#19 6.02435e-18
CA62 A#20 B#20 1.70606e-17
CA63 A#18 B#20 8.00716e-18
CA64 A B 2.61312e-17
RgA1 MX17/M1#g A#15 369.782349 $L=1.18 $W=0.15
RgA2 A#15 A#16 10.107612 $L=0.215 $W=0.67
RgA3 A#16 A#17 10.107612 $L=0.215 $W=0.67
RgA4 A#17 MX18/M0#g 287.842346 $L=0.925 $W=0.15
RgA5 A#15 MX18/M1#g 287.842346 $L=0.925 $W=0.15
RgA6 A#17 MX17/M0#g 369.782349 $L=1.18 $W=0.15
RfA7 A#18 A#19 30.492905 $L=0.48 $W=0.17
ReA8 A A#20 0.064904 $L=0.135 $W=0.26
RjA9 A#19 A#20 152.000000 $A=0.0289
RiA10 A#16 A#18 7.500000 $A=0.0578
*
*|NET Y 1.53047e-15
*|P (Y X 0 2.7750 2.3350)
*|I (MX19/M0#d MX19/M0 d X 0 2.7905 0.9350)
*|I (MX19/M1#s MX19/M1 s X 0 3.0695 0.9350)
*|I (MX22/M0#d MX22/M0 d X 0 1.4105 3.0400)
*|I (MX22/M1#s MX22/M1 s X 0 1.6895 3.0400)
*|I (MX20/M0#d MX20/M0 d X 0 2.7905 3.0400)
*|I (MX20/M1#s MX20/M1 s X 0 3.0695 3.0400)
*|I (MX17/M0#d MX17/M0 d X 0 0.5505 3.0400)
*|I (MX17/M1#s MX17/M1 s X 0 0.8295 3.0400)
*|S (Y#1 0.6900 3.3850)
*|S (Y#3 0.6900 3.0400)
*|S (Y#4 1.5500 3.3850)
*|S (Y#6 1.5500 3.0400)
*|S (Y#8 2.9300 3.0400)
*|S (Y#9 2.9300 2.9950)
*|S (Y#10 2.9300 1.1700)
*|S (Y#12 2.9300 0.9350)
*|S (Y#13 2.9300 1.1700)
*|S (Y#14 2.8375 1.3145)
*|S (Y#15 2.8375 2.4900)
*|S (Y#16 2.9300 2.9950)
*|S (Y#17 2.8375 3.3850)
*|S (Y#18 1.5500 3.3850)
*|S (Y#19 0.6900 3.3850)
CF1 MX22/M0#d VSS 1.28628e-18
CF2 MX19/M0#d VSS 4.58909e-19
CF3 Y#19 VSS 4.89944e-18
CF4 Y#18 VSS 3.21227e-18
CF5 Y#17 VSS 1.11712e-17
CF6 Y#13 VSS 3.14199e-17
CF7 Y#9 VSS 1.58496e-18
CF8 Y VSS 1.03294e-17
CF9 MX19/M0#d 12#10 1.07052e-17
CF10 Y#13 12#9 8.28595e-18
CF11 MX19/M0#d 12#6 3.70752e-17
CF12 Y#13 12#11 4.85315e-17
CF13 Y#13 12#10 2.22252e-17
CF14 MX19/M0#d 12#11 1.02352e-17
CF15 Y#13 12#6 1.19095e-17
CF16 MX19/M0#d 12#9 3.74031e-17
CF17 Y#18 MX21/M1#d 2.41326e-18
CF18 MX17/M0#d 10#11 2.2788e-18
CF19 MX22/M0#d 10#10 2.21709e-18
CF20 MX19/M0#d 10#10 1.24618e-18
CF21 MX17/M0#d 10#12 1.22634e-18
CF22 Y#13 MX21/M1#d 4.2814e-18
CF23 Y#13 10#10 1.60922e-17
CF24 Y#18 VSS#1 2.44527e-18
CF25 MX19/M0#d VSS#8 5.82983e-18
CF26 MX19/M0#d VSS#1 9.30525e-18
RfF60 Y#1 Y#3 25.976471 $L=0.345 $W=0.17
RfF61 Y#4 Y#6 25.976471 $L=0.345 $W=0.17
RfF62 Y#8 Y#9 0.698182 $L=0.045 $W=0.17
RfF63 Y#10 Y#12 17.694118 $L=0.235 $W=0.17
ReF64 Y#13 Y#14 0.055720 $L=0.1445 $W=0.415
ReF65 Y#14 Y 0.490460 $L=1.02 $W=0.26
ReF66 Y Y#15 0.074595 $L=0.155 $W=0.26
ReF67 Y#15 Y#16 0.169379 $L=0.5045 $W=0.415
ReF68 Y#16 Y#17 0.121625 $L=0.39 $W=0.415
ReF69 Y#17 Y#18 0.625750 $L=1.2875 $W=0.23
ReF70 Y#18 Y#19 0.467391 $L=0.86 $W=0.23
RhF71 MX19/M0#d Y#12 7.500000 $A=0.0578
Rh_2_F72 MX17/M0#d Y#3 5.000000 $A=0.0867
Rh_2_F73 MX22/M0#d Y#6 5.000000 $A=0.0867
Rh_2_F74 MX20/M0#d Y#8 5.000000 $A=0.0867
RjF75 Y#10 Y#13 152.000000 $A=0.0289
RjF76 Y#9 Y#16 50.666668 $A=0.0867
RjF77 Y#4 Y#18 152.000000 $A=0.0289
RjF78 Y#1 Y#19 152.000000 $A=0.0289
RmwF79 MX19/M1#s MX19/M0#d 0.001000 $W=1000000
RmwF80 MX22/M1#s MX22/M0#d 0.001000 $W=1000000
RmwF81 MX20/M1#s MX20/M0#d 0.001000 $W=1000000
RmwF82 MX17/M1#s MX17/M0#d 0.001000 $W=1000000
*
*|NET VDD 1.24983e-15
*|P (VDD X 0 2.4150 4.1450)
*|I (MX22/M0#s MX22/M0 s X 0 1.2595 3.0400)
*|I (MX22/M1#d MX22/M1 d X 0 1.8405 3.0400)
*|I (MX20/M0#s MX20/M0 s X 0 2.6395 3.0400)
*|I (MX20/M1#d MX20/M1 d X 0 3.2205 3.0400)
*|I (MX17/M0#s MX17/M0 s X 0 0.3995 3.0400)
*|I (MX17/M1#d MX17/M1 d X 0 0.9805 3.0400)
*|S (VDD#2 3.3600 3.0400)
*|S (VDD#3 3.4775 4.1400)
*|S (VDD#4 2.5000 4.1400)
*|S (VDD#5 1.8400 4.1400)
*|S (VDD#6 1.8400 4.1400)
*|S (VDD#9 2.5000 3.0400)
*|S (VDD#11 1.9800 3.0400)
*|S (VDD#12 1.1200 4.1400)
*|S (VDD#14 1.1200 3.0400)
*|S (VDD#15 0.1725 4.1400)
*|S (VDD#16 0.2600 4.0150)
*|S (VDD#18 0.2600 3.0400)
*|S (VDD#19 1.8400 4.1400)
CD1 MX20/M1#d VSS 6.46252e-18
CD2 MX20/M0#s VSS 1.0016e-18
CD3 MX22/M0#s VSS 8.61096e-19
CD4 VDD#19 VSS 3.92203e-18
CD5 VDD#15 VSS 8.05369e-19
CD6 VDD#12 VSS 2.51905e-18
CD7 VDD#4 VSS 5.43466e-19
CD8 VDD#3 VSS 1.6316e-18
CD9 VDD#5 VSS 2.62716e-18
CD10 VDD VSS 2.82171e-18
CD11 MX22/M1#d 10#10 3.58272e-18
CD12 MX17/M0#s 10#12 3.52141e-18
CD13 MX22/M1#d MX21/M1#d 3.26848e-18
CD14 VDD 10#12 2.17112e-18
CD15 VDD 10#10 2.17112e-18
CD16 MX22/M0#s MX21/M0#s 1.93825e-18
CD17 VDD#5 10#10 1.89281e-18
CD18 VDD#19 MX18/M0#s 1.63135e-18
CD19 MX17/M0#s MX18/M0#s 1.51317e-18
CD20 MX22/M0#s 10#11 5.42988e-18
CD21 MX20/M1#d Y 6.05312e-18
CD22 VDD Y#18 5.9979e-18
CD23 VDD#19 Y#9 5.84114e-18
CD24 VDD#5 MX22/M0#d 5.81692e-18
CD25 VDD#19 MX22/M0#d 5.69265e-18
CD26 VDD#19 MX17/M0#d 5.67428e-18
CD27 VDD#5 Y#18 5.4427e-18
CD28 MX20/M0#s Y 5.35751e-18
CD29 MX22/M1#d Y#17 4.52471e-18
CD30 VDD#12 Y#19 4.13371e-18
CD31 VDD#12 Y#18 3.78416e-18
CD32 VDD#4 Y#9 3.46701e-18
CD33 VDD#3 Y#9 3.43319e-18
CD34 VDD#15 MX17/M0#d 3.16235e-18
CD35 VDD#15 Y#19 3.00832e-18
CD36 VDD#3 Y#17 2.73365e-18
CD37 VDD#12 MX17/M0#d 2.31608e-18
CD38 MX20/M1#d Y#9 5.54413e-17
CD39 MX20/M0#s Y#9 5.39689e-17
CD40 MX20/M0#s Y#17 4.72734e-17
CD41 MX17/M0#s MX17/M0#d 5.83579e-17
CD42 MX22/M1#d Y#18 3.45489e-17
CD43 MX17/M0#s Y#19 8.2566e-18
CD44 VDD#19 Y#17 5.38261e-17
CD45 VDD#4 Y#17 6.46294e-18
CD46 VDD Y#19 1.19055e-17
CD47 VDD#19 Y#18 5.34152e-17
CD48 MX22/M0#s Y#19 1.6438e-17
CD49 MX22/M0#s Y#18 1.58231e-17
CD50 MX20/M1#d Y#17 1.80392e-17
CD51 VDD#19 Y#19 3.44707e-17
CD52 VDD Y 1.82637e-17
CD53 MX22/M1#d MX22/M0#d 6.02483e-17
CD54 MX22/M0#s MX17/M0#d 6.1326e-17
CD55 MX22/M0#s MX22/M0#d 5.69526e-17
RfD33 VDD#2 VDD#3 81.667908 $L=1.1 $W=0.17
RfD34 VDD#3 VDD#4 43.247463 $L=0.9775 $W=0.25
RfD35 VDD#4 VDD#5 33.516811 $L=0.66 $W=0.25
RfD36 VDD#4 VDD#9 76.215675 $L=1.1 $W=0.17
RfD37 VDD#5 VDD#11 79.811768 $L=1.1 $W=0.17
RfD38 VDD#5 VDD#12 36.588810 $L=0.72 $W=0.25
RfD39 VDD#12 VDD#14 76.215675 $L=1.1 $W=0.17
RfD40 VDD#12 VDD#15 43.100529 $L=0.9475 $W=0.25
RfD41 VDD#15 VDD#16 3.709770 $L=0.1245 $W=0.345
RfD42 VDD#16 VDD#18 73.421043 $L=0.975 $W=0.17
ReD43 VDD VDD#19 0.179688 $L=0.575 $W=0.4
Rh_1_D44 VDD#6 VDD#5 2.142857 $A=0.2023
Rh_2_D45 MX20/M1#d VDD#2 5.000000 $A=0.0867
Rh_2_D46 MX20/M0#s VDD#9 5.000000 $A=0.0867
Rh_2_D47 MX22/M1#d VDD#11 5.000000 $A=0.0867
Rh_2_D48 MX22/M0#s VDD#14 5.000000 $A=0.0867
Rh_2_D49 MX17/M0#s VDD#18 5.000000 $A=0.0867
RjD50 VDD#5 VDD#19 21.714285 $A=0.2023
RmwD51 MX17/M1#d MX22/M0#s 0.001000 $W=1000000
*
*|NET 10 7.35909e-16
*|I (MX21/M0#s MX21/M0 s X 0 1.2595 0.9350)
*|I (MX21/M1#d MX21/M1 d X 0 1.8405 0.9350)
*|I (MX18/M0#s MX18/M0 s X 0 0.3995 0.9350)
*|I (MX18/M1#d MX18/M1 d X 0 0.9805 0.9350)
*|S (10 0.2600 1.1400)
*|S (10#3 0.2600 0.9350)
*|S (10#4 1.1200 1.1400)
*|S (10#6 1.1200 0.9350)
*|S (10#7 1.9800 1.1400)
*|S (10#9 1.9800 0.9350)
*|S (10#10 1.9800 1.1400)
*|S (10#11 1.1200 1.1400)
*|S (10#12 0.2600 1.1400)
CG1 MX18/M0#s VSS 2.11942e-17
CG2 MX21/M1#d VSS 3.14696e-18
CG3 MX21/M0#s VSS 2.82083e-18
CG4 10#12 VSS 2.89018e-17
CG5 10#11 VSS 6.30043e-18
CG6 10#10 VSS 1.004e-17
CG7 MX18/M0#s 12#12 2.19146e-18
CG8 10#11 12#3 1.0452e-17
CG9 10#10 12#12 5.58064e-17
CG10 MX21/M1#d 12#6 2.6806e-17
CG11 MX21/M1#d 12#3 3.63804e-17
CG12 10#11 12#12 1.70002e-17
CG13 MX21/M1#d 12#12 1.35251e-17
CG14 10#10 12#6 5.40664e-18
CG15 MX21/M0#s 12#3 3.80847e-17
CG16 10#10 12#3 1.06919e-17
CG17 10#10 12#11 2.05251e-17
CG18 MX21/M1#d 12#11 7.83355e-18
CG19 MX21/M0#s 12#12 7.13799e-18
CG20 10#11 VSS#4 2.93239e-18
CG21 10#12 VSS#5 1.9809e-18
CG22 10#12 VSS#4 1.92609e-18
CG23 MX18/M0#s VSS#4 1.75599e-18
CG24 10#12 VSS#8 1.74626e-17
CG25 10#11 MX18/M0#d 1.62457e-17
CG26 MX21/M0#s MX18/M0#d 3.94436e-17
CG27 MX21/M1#d VSS#8 6.35391e-18
CG28 MX21/M1#d VSS#1 7.42443e-18
CG29 MX21/M0#s VSS#4 5.84854e-18
CG30 MX21/M0#s VSS#8 8.28042e-18
CG31 MX18/M0#s VSS#8 8.17991e-18
CG32 MX18/M0#s VSS#5 5.20443e-18
CG33 10#11 VSS#8 1.90396e-17
CG34 10#12 MX18/M0#d 1.54695e-17
CG35 MX18/M0#s MX18/M0#d 4.13978e-17
RfG83 10 10#3 15.435293 $L=0.205 $W=0.17
RfG84 10#4 10#6 15.435293 $L=0.205 $W=0.17
RfG85 10#7 10#9 15.435293 $L=0.205 $W=0.17
ReG86 10#10 10#11 0.467391 $L=0.86 $W=0.23
ReG87 10#11 10#12 0.467391 $L=0.86 $W=0.23
RhG88 MX18/M0#s 10#3 7.500000 $A=0.0578
RhG89 MX21/M0#s 10#6 7.500000 $A=0.0578
RhG90 MX21/M1#d 10#9 7.500000 $A=0.0578
RjG91 10#7 10#10 152.000000 $A=0.0289
RjG92 10#4 10#11 152.000000 $A=0.0289
RjG93 10 10#12 152.000000 $A=0.0289
RmwG94 MX18/M1#d MX21/M0#s 0.001000 $W=1000000
*
*|NET B 5.86302e-16
*|P (B X 0 1.3950 2.2450)
*|I (MX21/M0#g MX21/M0 g X 0 1.3350 0.9350)
*|I (MX21/M1#g MX21/M1 g X 0 1.7650 0.9350)
*|I (MX22/M0#g MX22/M0 g X 0 1.3350 3.0400)
*|I (MX22/M1#g MX22/M1 g X 0 1.7650 3.0400)
*|S (B#15 1.7650 1.8600)
*|S (B#16 1.5500 1.8600)
*|S (B#17 1.3350 1.8600)
*|S (B#18 1.5500 1.8600)
*|S (B#19 1.3800 2.1100)
*|S (B#20 1.3800 2.1100)
CB1 MX22/M1#g VSS 5.42257e-19
CB2 MX22/M0#g VSS 6.39279e-19
CB3 MX21/M1#g VSS 1.40227e-17
CB4 MX21/M0#g VSS 1.49984e-17
CB5 B#20 VSS 9.89142e-19
CB6 B#18 VSS 1.75263e-17
CB7 B#19 VSS 9.00264e-18
CB8 B VSS 1.08561e-18
CB9 B#20 12#3 2.3944e-18
CB10 B#18 12#3 1.48749e-17
CB11 MX21/M0#g 12#12 3.46796e-18
CB12 MX21/M0#g 12#3 1.05713e-17
CB13 MX21/M1#g 12#6 3.14696e-18
CB14 MX21/M1#g 12#3 1.10677e-17
CB15 MX21/M0#g 10#11 2.905e-18
CB16 B#18 10#10 2.59147e-18
CB17 MX21/M1#g MX21/M0#s 2.10569e-18
CB18 MX21/M0#g MX21/M1#d 2.01342e-18
CB19 B#19 10#11 3.62631e-18
CB20 MX22/M1#g 10#10 5.39754e-18
CB21 MX21/M1#g MX21/M1#d 1.21415e-17
CB22 MX21/M1#g 10#10 3.062e-18
CB23 MX21/M0#g MX21/M0#s 1.05585e-17
CB24 B#20 10#11 2.61989e-17
CB25 B#18 Y#13 2.62457e-18
CB26 MX22/M0#g Y#17 1.81582e-18
CB27 MX22/M0#g Y#18 1.67913e-18
CB28 MX21/M1#g Y#18 1.24605e-18
CB29 B Y#18 1.95252e-17
CB30 B Y#17 3.78803e-18
CB31 MX22/M1#g Y#18 6.18201e-18
CB32 B#19 MX22/M0#d 1.71851e-17
CB33 B#19 Y#18 4.14331e-18
CB34 B MX17/M0#d 3.72624e-18
CB35 MX22/M0#g MX17/M0#d 3.1892e-18
CB36 MX22/M1#g MX22/M0#d 1.64307e-17
CB37 B MX22/M0#d 2.64569e-17
CB38 MX22/M0#g MX22/M0#d 1.56064e-17
CB39 MX21/M0#g MX18/M0#d 2.32419e-18
CB40 MX21/M0#g VSS#1 5.02251e-18
CB41 MX21/M1#g VSS#8 3.43835e-18
CB42 MX21/M1#g VSS#1 8.53442e-18
CB43 MX21/M0#g VSS#8 3.94133e-18
CB44 MX22/M1#g VDD#5 2.10271e-18
CB45 B MX20/M0#s 1.50117e-18
CB46 B#19 VDD 6.02213e-18
CB47 MX22/M1#g MX22/M0#s 3.30906e-18
CB48 MX22/M0#g VDD#12 7.17149e-18
CB49 B MX22/M1#d 5.15577e-18
CB50 MX22/M0#g MX22/M1#d 3.38882e-18
CB51 B MX22/M0#s 1.48784e-17
CB52 MX22/M1#g VDD#19 3.54546e-18
CB53 MX22/M0#g VDD#19 3.54546e-18
CB54 MX22/M0#g MX22/M0#s 1.6548e-17
CB55 MX22/M1#g VDD 1.17148e-17
CB56 MX22/M0#g VDD 1.60477e-17
CB57 MX22/M1#g MX22/M1#d 1.91092e-17
CB58 B VDD 3.60242e-18
CB59 MX22/M1#g MX20/M0#s 5.0425e-18
CB60 B#20 C 2.74763e-18
CB61 B#20 C#21 2.61202e-18
CB62 B#19 C 3.95981e-18
CB63 B#20 C#22 1.47565e-17
CB64 B#18 C#22 9.91648e-18
CB65 B#18 C#21 1.15053e-17
CB66 B C 2.38727e-17
RgB11 MX22/M1#g B#15 369.782349 $L=1.18 $W=0.15
RgB12 B#15 B#16 10.107612 $L=0.215 $W=0.67
RgB13 B#16 B#17 10.107612 $L=0.215 $W=0.67
RgB14 B#17 MX21/M0#g 287.842346 $L=0.925 $W=0.15
RgB15 B#15 MX21/M1#g 287.842346 $L=0.925 $W=0.15
RgB16 B#17 MX22/M0#g 369.782349 $L=1.18 $W=0.15
RfB17 B#18 B#19 25.975258 $L=0.42 $W=0.17
ReB18 B B#20 0.064904 $L=0.135 $W=0.26
RjB19 B#19 B#20 152.000000 $A=0.0289
RiB20 B#16 B#18 7.500000 $A=0.0578
*
*Instance Section
*
MX21/M0	MX21/M0#d	MX21/M0#g	MX21/M0#s	VSS	nfet_01v8
+ L=1.5e-07	W=8.4e-07
MX21/M1	MX21/M1#d	MX21/M1#g	MX21/M1#s	VSS	nfet_01v8
+ L=1.5e-07	W=8.4e-07
MX19/M0	MX19/M0#d	MX19/M0#g	MX19/M0#s	VSS	nfet_01v8
+ L=1.5e-07	W=8.4e-07
MX19/M1	MX19/M1#d	MX19/M1#g	MX19/M1#s	VSS	nfet_01v8
+ L=1.5e-07	W=8.4e-07
MX18/M0	MX18/M0#d	MX18/M0#g	MX18/M0#s	VSS	nfet_01v8
+ L=1.5e-07	W=8.4e-07
MX18/M1	MX18/M1#d	MX18/M1#g	MX18/M1#s	VSS	nfet_01v8
+ L=1.5e-07	W=8.4e-07
MX22/M0	MX22/M0#d	MX22/M0#g	MX22/M0#s	VDD	pfet_01v8_hvt
+ L=1.5e-07	W=1.24e-06
MX22/M1	MX22/M1#d	MX22/M1#g	MX22/M1#s	VDD	pfet_01v8_hvt
+ L=1.5e-07	W=1.24e-06
MX20/M0	MX20/M0#d	MX20/M0#g	MX20/M0#s	VDD	pfet_01v8_hvt
+ L=1.5e-07	W=1.24e-06
MX20/M1	MX20/M1#d	MX20/M1#g	MX20/M1#s	VDD	pfet_01v8_hvt
+ L=1.5e-07	W=1.24e-06
MX17/M0	MX17/M0#d	MX17/M0#g	MX17/M0#s	VDD	pfet_01v8_hvt
+ L=1.5e-07	W=1.24e-06
MX17/M1	MX17/M1#d	MX17/M1#g	MX17/M1#s	VDD	pfet_01v8_hvt
+ L=1.5e-07	W=1.24e-06
.ENDS
