*
*|DSPF 1.5
*
*|DATE "Fri Feb 28 12:54:57 2025"
*|VENDOR "Cadence Design Systems"
*|PROGRAM "Cadence Quantus Extraction"
*|VERSION "22.1.0-p089 Linux 64 bit - (Thu Jan 19 11:47:08 PST 2023)"
*|DESIGN "NAND4X4_LP"
*|DIVIDER /
*|DELIMITER #
*|DeviceFingerDelim "@"
*|BUSBIT []
*|GLOBAL_TEMPERATURE 25
*|OPERATING_TEMPERATURE 25
** QRC_TECH_DIR /vols/wfo_devel/projects/reference_SKY130/tech/sky130_release_0.0.4/quantus/extraction/typical 
** HIERARCHICAL_SPLIT_PINS_DELIMITER '%'
** caps2d version: 10
*
.SUBCKT  NAND4X4_LP A B C D VDD VSS Y
*
*Net Section
*
*|GROUND_NET VSS
*
*|NET Y 1.82454e-15
*|P (Y X 0 3.6950 1.9900)
*|I (MX29/M0#d MX29/M0 d X 0 3.6505 0.9700)
*|I (MX29/M1#s MX29/M1 s X 0 3.9295 0.9700)
*|I (MX31/M0#d MX31/M0 d X 0 1.4105 3.0400)
*|I (MX31/M1#s MX31/M1 s X 0 1.6895 3.0400)
*|I (MX30/M0#d MX30/M0 d X 0 3.6505 3.0400)
*|I (MX30/M1#s MX30/M1 s X 0 3.9295 3.0400)
*|I (MX27/M0#d MX27/M0 d X 0 2.7905 3.0400)
*|I (MX27/M1#s MX27/M1 s X 0 3.0695 3.0400)
*|I (MX24/M0#d MX24/M0 d X 0 0.5505 3.0400)
*|I (MX24/M1#s MX24/M1 s X 0 0.8295 3.0400)
*|S (Y#1 0.6900 3.3850)
*|S (Y#3 0.6900 3.0400)
*|S (Y#4 1.5500 3.3850)
*|S (Y#6 1.5500 3.0400)
*|S (Y#7 2.9300 3.3850)
*|S (Y#9 2.9300 3.0400)
*|S (Y#10 3.7900 3.3850)
*|S (Y#12 3.7900 3.0400)
*|S (Y#13 3.7900 1.1850)
*|S (Y#15 3.7900 0.9700)
*|S (Y#16 3.7900 1.1850)
*|S (Y#17 3.7275 1.3295)
*|S (Y#18 3.7900 3.3850)
*|S (Y#19 2.9300 3.3850)
*|S (Y#20 1.5500 3.3850)
*|S (Y#21 0.6900 3.3850)
CG1 MX24/M0#d VSS 2.54031e-18
CG2 MX27/M0#d VSS 8.11011e-19
CG3 MX31/M0#d VSS 1.81578e-18
CG4 MX29/M0#d VSS 1.51519e-18
CG5 Y#21 VSS 2.95417e-18
CG6 Y#20 VSS 8.38767e-18
CG7 Y#19 VSS 5.76981e-18
CG8 Y#18 VSS 1.04512e-17
CG9 Y#17 VSS 1.62441e-17
CG10 Y VSS 4.48483e-18
CG11 Y#17 MX26/M0#d 2.93201e-18
CG12 MX27/M0#d 15#7 2.62981e-18
CG13 Y#17 15#7 1.67118e-17
CG14 Y#19 2#3 2.50423e-18
CG15 MX29/M0#d 2#6 3.68056e-17
CG16 Y#17 2#13 1.81067e-17
CG17 MX29/M0#d 2#9 3.70594e-17
CG18 MX29/M0#d 2#13 1.31481e-17
CG19 Y#17 2#11 1.36806e-17
CG20 Y#17 2#6 1.03389e-17
CG21 Y#17 2#9 9.27161e-18
CG22 MX29/M0#d 2#11 1.4124e-17
CG23 MX29/M0#d VSS#8 5.0147e-18
CG24 Y#20 VSS#2 2.2637e-18
CG25 Y#19 VSS#2 2.14992e-18
CG26 MX29/M0#d VSS#2 8.45624e-18
RfG84 Y#1 Y#3 25.976471 $L=0.345 $W=0.17
RfG85 Y#4 Y#6 25.976471 $L=0.345 $W=0.17
RfG86 Y#7 Y#9 25.976471 $L=0.345 $W=0.17
RfG87 Y#10 Y#12 25.976471 $L=0.345 $W=0.17
RfG88 Y#13 Y#15 16.188236 $L=0.215 $W=0.17
ReG89 Y#16 Y#17 0.058474 $L=0.1445 $W=0.355
ReG90 Y#17 Y 0.317396 $L=0.66 $W=0.26
ReG91 Y Y#18 0.652018 $L=1.395 $W=0.26
ReG92 Y#18 Y#19 0.370690 $L=0.86 $W=0.29
ReG93 Y#19 Y#20 0.594828 $L=1.38 $W=0.29
ReG94 Y#20 Y#21 0.370690 $L=0.86 $W=0.29
RhG95 MX29/M0#d Y#15 7.500000 $A=0.0578
Rh_2_G96 MX24/M0#d Y#3 5.000000 $A=0.0867
Rh_2_G97 MX31/M0#d Y#6 5.000000 $A=0.0867
Rh_2_G98 MX27/M0#d Y#9 5.000000 $A=0.0867
Rh_2_G99 MX30/M0#d Y#12 5.000000 $A=0.0867
RjG100 Y#13 Y#16 152.000000 $A=0.0289
RjG101 Y#10 Y#18 152.000000 $A=0.0289
RjG102 Y#7 Y#19 152.000000 $A=0.0289
RjG103 Y#4 Y#20 152.000000 $A=0.0289
RjG104 Y#1 Y#21 152.000000 $A=0.0289
RmwG105 MX29/M1#s MX29/M0#d 0.001000 $W=1000000
RmwG106 MX31/M1#s MX31/M0#d 0.001000 $W=1000000
RmwG107 MX30/M1#s MX30/M0#d 0.001000 $W=1000000
RmwG108 MX27/M1#s MX27/M0#d 0.001000 $W=1000000
RmwG109 MX24/M1#s MX24/M0#d 0.001000 $W=1000000
*
*|NET 14 7.89318e-16
*|I (MX28/M0#s MX28/M0 s X 0 1.2595 0.9700)
*|I (MX28/M1#d MX28/M1 d X 0 1.8405 0.9700)
*|I (MX25/M0#s MX25/M0 s X 0 0.3995 0.9700)
*|I (MX25/M1#d MX25/M1 d X 0 0.9805 0.9700)
*|S (14 0.2600 0.9700)
*|S (14#2 0.2600 0.9700)
*|S (14#3 0.2600 0.7550)
*|S (14#5 1.1200 0.9700)
*|S (14#6 1.1200 0.7550)
*|S (14#8 1.9800 0.9700)
*|S (14#9 1.9800 0.7550)
*|S (14#10 1.9800 0.7550)
*|S (14#11 1.1200 0.7550)
*|S (14#12 0.2600 0.7550)
CI1 MX28/M1#d VSS 9.26139e-20
CI2 MX28/M0#s VSS 6.70456e-21
CI3 14#12 VSS 3.38661e-17
CI4 14#11 VSS 5.78042e-18
CI5 14#10 VSS 5.27439e-18
CI6 14#3 VSS 2.36011e-17
CI7 14#6 VSS 3.55589e-18
CI8 14#9 VSS 6.78792e-18
CI9 14 VSS 3.05739e-19
CI10 14#6 MX28/M0#d 3.71846e-17
CI11 14#9 MX28/M0#d 3.58393e-17
CI12 14#10 MX28/M0#d 1.04657e-17
CI13 14#11 15#8 1.57253e-17
CI14 14#9 15#8 2.36672e-17
CI15 14#6 15#8 7.07709e-18
CI16 14#11 MX28/M0#d 1.03516e-17
CI17 14#10 15#8 6.44886e-17
CI18 14#12 VSS#5 3.71697e-18
CI19 14#12 VSS#4 3.59122e-18
CI20 14#6 VSS#8 6.279e-18
CI21 14#6 MX25/M0#d 3.8609e-17
CI22 14#10 VSS#8 3.07931e-17
CI23 14#9 VSS#2 8.32577e-18
CI24 14#12 VSS#8 3.47799e-17
CI25 14#3 MX25/M0#d 3.88805e-17
CI26 14#6 VSS#4 6.91576e-18
CI27 14#12 MX25/M0#d 1.61314e-17
CI28 14#3 VSS#5 5.31775e-18
CI29 14#10 VSS#2 8.49361e-18
CI30 14#11 VSS#4 9.22855e-18
CI31 14#11 VSS#8 4.57352e-17
CI32 14#11 MX25/M0#d 1.57867e-17
CI33 14#3 VSS#8 6.01958e-18
CI34 14#9 VSS#8 6.279e-18
RfI126 14#2 14#3 16.188236 $L=0.215 $W=0.17
RfI127 14#5 14#6 16.188236 $L=0.215 $W=0.17
RfI128 14#8 14#9 16.188236 $L=0.215 $W=0.17
ReI129 14#10 14#11 0.467391 $L=0.86 $W=0.23
ReI130 14#11 14#12 0.467391 $L=0.86 $W=0.23
RhI131 14 14#2 7.500000 $A=0.0578
RhI132 MX28/M0#s 14#5 7.500000 $A=0.0578
RhI133 MX28/M1#d 14#8 7.500000 $A=0.0578
RjI134 14#9 14#10 152.000000 $A=0.0289
RjI135 14#6 14#11 152.000000 $A=0.0289
RjI136 14#3 14#12 152.000000 $A=0.0289
RmwI137 MX25/M0#s 14 0.001000 $W=1000000
RmwI138 MX25/M1#d MX28/M0#s 0.001000 $W=1000000
*
*|NET VSS 1.37469e-15
*|P (VSS X 0 2.4150 0.0050)
*|I (MX25/M0#d MX25/M0 d X 0 0.5505 0.9700)
*|I (MX25/M1#s MX25/M1 s X 0 0.8295 0.9700)
*|S (VSS#1 2.3000 0.0000)
*|S (VSS#2 2.3000 0.0000)
*|S (VSS#4 0.6900 0.0000)
*|S (VSS#5 0.0000 0.0000)
*|S (VSS#7 0.6900 0.9700)
*|S (VSS#8 2.3000 0.0000)
RfF76 VSS#1 VSS#4 82.156807 $L=1.61 $W=0.25
RfF77 VSS#4 VSS#5 35.052811 $L=0.69 $W=0.25
RfF78 VSS#4 VSS#7 66.427444 $L=0.97 $W=0.17
ReF79 VSS VSS#8 0.035937 $L=0.115 $W=0.4
RhF80 MX25/M0#d VSS#7 7.500000 $A=0.0578
Rh_3_F81 VSS#2 VSS#1 1.666667 $A=0.2601
RjF82 VSS#1 VSS#8 16.888889 $A=0.2601
RmwF83 MX25/M1#s MX25/M0#d 0.001000 $W=1000000
*
*|NET VDD 1.61916e-15
*|P (VDD X 0 2.4150 4.1450)
*|I (MX31/M0#s MX31/M0 s X 0 1.2595 3.0400)
*|I (MX31/M1#d MX31/M1 d X 0 1.8405 3.0400)
*|I (MX30/M0#s MX30/M0 s X 0 3.4995 3.0400)
*|I (MX30/M1#d MX30/M1 d X 0 4.0805 3.0400)
*|I (MX27/M0#s MX27/M0 s X 0 2.6395 3.0400)
*|I (MX27/M1#d MX27/M1 d X 0 3.2205 3.0400)
*|I (MX24/M0#s MX24/M0 s X 0 0.3995 3.0400)
*|I (MX24/M1#d MX24/M1 d X 0 0.9805 3.0400)
*|S (VDD#2 4.2200 3.0400)
*|S (VDD#3 4.3675 4.1400)
*|S (VDD#4 3.3600 4.1400)
*|S (VDD#5 2.5000 4.1400)
*|S (VDD#6 2.3000 4.1400)
*|S (VDD#7 2.3000 4.1400)
*|S (VDD#9 1.9800 4.1400)
*|S (VDD#10 1.1200 4.1400)
*|S (VDD#11 0.1725 4.1400)
*|S (VDD#12 0.2600 4.0150)
*|S (VDD#14 0.2600 3.0400)
*|S (VDD#16 3.3600 3.0400)
*|S (VDD#18 2.5000 3.0400)
*|S (VDD#20 1.9800 3.0400)
*|S (VDD#22 1.1200 3.0400)
*|S (VDD#23 2.3000 4.1400)
CE1 MX24/M0#s VSS 2.06328e-18
CE2 MX27/M0#s VSS 2.89228e-18
CE3 MX30/M1#d VSS 2.53928e-18
CE4 MX31/M1#d VSS 1.74236e-18
CE5 MX31/M0#s VSS 1.8955e-18
CE6 VDD#23 VSS 1.14464e-18
CE7 VDD#11 VSS 9.24528e-20
CE8 VDD#10 VSS 5.19837e-19
CE9 VDD#9 VSS 3.05786e-19
CE10 VDD#4 VSS 2.37833e-18
CE11 VDD#3 VSS 2.42477e-18
CE12 VDD#7 VSS 3.50829e-18
CE13 VDD 15#8 3.4572e-18
CE14 VDD 15#7 3.4572e-18
CE15 VDD#9 15#8 1.53841e-18
CE16 MX27/M0#s 15#7 4.13461e-18
CE17 MX31/M1#d 15#8 3.94673e-18
CE18 MX31/M1#d 14#9 3.60932e-18
CE19 MX31/M0#s 14#11 2.8876e-18
CE20 MX24/M0#s 14#3 2.84942e-18
CE21 VDD#10 14#11 2.1967e-18
CE22 MX31/M0#s 14#6 4.03668e-18
CE23 MX30/M0#s 2#6 4.03668e-18
CE24 MX27/M0#s 2#3 3.60932e-18
CE25 MX30/M0#s 2#13 2.85653e-18
CE26 VDD Y 7.53457e-18
CE27 VDD#7 Y#19 7.4194e-18
CE28 VDD#23 MX24/M0#d 6.02411e-18
CE29 VDD#23 MX27/M0#d 6.02411e-18
CE30 MX30/M0#s Y 5.65344e-18
CE31 VDD#23 MX30/M0#d 5.62312e-18
CE32 VDD#23 MX31/M0#d 5.62312e-18
CE33 VDD#4 Y#18 5.30736e-18
CE34 VDD#9 Y#20 5.25602e-18
CE35 VDD#10 Y#20 5.19205e-18
CE36 VDD#10 Y#21 5.18051e-18
CE37 VDD#4 Y#19 5.18051e-18
CE38 VDD#7 MX27/M0#d 3.46701e-18
CE39 VDD#4 MX30/M0#d 3.46701e-18
CE40 VDD#10 MX31/M0#d 3.46701e-18
CE41 VDD#11 MX24/M0#d 3.17004e-18
CE42 VDD#11 Y#21 3.12981e-18
CE43 VDD#3 MX30/M0#d 2.84665e-18
CE44 VDD Y#18 2.71748e-18
CE45 VDD#3 Y#18 2.69363e-18
CE46 VDD#9 MX31/M0#d 2.51829e-18
CE47 VDD#10 MX24/M0#d 2.34429e-18
CE48 VDD#4 MX27/M0#d 2.31498e-18
CE49 VDD#7 Y#20 2.15185e-18
CE50 VDD#23 Y#18 4.00923e-17
CE51 VDD#23 Y#20 6.38426e-17
CE52 MX24/M0#s Y#21 9.5955e-18
CE53 VDD Y#21 1.4703e-17
CE54 MX31/M1#d Y#20 3.64415e-17
CE55 VDD Y#20 8.8081e-18
CE56 MX31/M0#s MX31/M0#d 5.84936e-17
CE57 VDD Y#19 1.16602e-17
CE58 MX31/M0#s MX24/M0#d 6.00836e-17
CE59 MX30/M1#d Y#18 1.65526e-17
CE60 MX31/M1#d MX31/M0#d 5.80258e-17
CE61 MX31/M0#s Y#20 1.68984e-17
CE62 VDD#23 Y#19 6.13158e-17
CE63 MX31/M0#s Y#21 1.83485e-17
CE64 VDD#23 Y#21 3.70332e-17
CE65 MX30/M0#s Y#18 3.19795e-17
CE66 MX30/M0#s Y#19 1.24053e-17
CE67 MX30/M0#s MX30/M0#d 5.38722e-17
CE68 MX30/M1#d MX30/M0#d 5.8212e-17
CE69 MX27/M0#s Y#19 3.74311e-17
CE70 MX30/M0#s MX27/M0#d 5.78693e-17
CE71 MX24/M0#s MX24/M0#d 6.23326e-17
CE72 MX27/M0#s MX27/M0#d 5.5888e-17
RfE52 VDD#2 VDD#3 82.844978 $L=1.1 $W=0.17
RfE53 VDD#3 VDD#4 43.418163 $L=1.0075 $W=0.25
RfE54 VDD#4 VDD#5 43.481621 $L=0.86 $W=0.25
RfE55 VDD#5 VDD#6 9.964811 $L=0.2 $W=0.25
RfE56 VDD#6 VDD#9 16.108810 $L=0.32 $W=0.25
RfE57 VDD#9 VDD#10 43.481621 $L=0.86 $W=0.25
RfE58 VDD#10 VDD#11 43.100529 $L=0.9475 $W=0.25
RfE59 VDD#11 VDD#12 3.709770 $L=0.1245 $W=0.345
RfE60 VDD#12 VDD#14 73.421043 $L=0.975 $W=0.17
RfE61 VDD#4 VDD#16 76.215675 $L=1.1 $W=0.17
RfE62 VDD#5 VDD#18 76.215675 $L=1.1 $W=0.17
RfE63 VDD#9 VDD#20 76.215675 $L=1.1 $W=0.17
RfE64 VDD#10 VDD#22 76.215675 $L=1.1 $W=0.17
ReE65 VDD VDD#23 0.035937 $L=0.115 $W=0.4
Rh_1_E66 VDD#7 VDD#6 1.666667 $A=0.2601
Rh_2_E67 MX30/M1#d VDD#2 5.000000 $A=0.0867
Rh_2_E68 MX24/M0#s VDD#14 5.000000 $A=0.0867
Rh_2_E69 MX30/M0#s VDD#16 5.000000 $A=0.0867
Rh_2_E70 MX27/M0#s VDD#18 5.000000 $A=0.0867
Rh_2_E71 MX31/M1#d VDD#20 5.000000 $A=0.0867
Rh_2_E72 MX31/M0#s VDD#22 5.000000 $A=0.0867
RjE73 VDD#6 VDD#23 16.888889 $A=0.2601
RmwE74 MX27/M1#d MX30/M0#s 0.001000 $W=1000000
RmwE75 MX24/M1#d MX31/M0#s 0.001000 $W=1000000
*
*|NET A 5.66695e-16
*|P (A X 0 0.4750 1.8000)
*|I (MX25/M0#g MX25/M0 g X 0 0.4750 0.9700)
*|I (MX25/M1#g MX25/M1 g X 0 0.9050 0.9700)
*|I (MX24/M0#g MX24/M0 g X 0 0.4750 3.0400)
*|I (MX24/M1#g MX24/M1 g X 0 0.9050 3.0400)
*|S (A#15 0.9050 1.6650)
*|S (A#16 0.6900 1.6650)
*|S (A#17 0.4650 1.6650)
*|S (A#18 0.4650 1.5000)
*|S (A#19 0.9150 1.5000)
*|S (A#20 0.4650 1.8295)
*|S (A#21 0.6900 1.6650)
*|S (A#22 0.4600 1.6650)
*|S (A#23 0.4600 1.6650)
CA1 MX24/M1#g VSS 1.2033e-19
CA2 MX25/M1#g VSS 1.43056e-17
CA3 MX25/M0#g VSS 1.62235e-17
CA4 A#23 VSS 2.80415e-17
CA5 A#21 VSS 3.52464e-17
CA6 A VSS 1.88305e-17
CA7 MX25/M1#g 14#3 2.70088e-18
CA8 MX25/M0#g 14#6 2.64593e-18
CA9 A#21 14#12 2.36167e-18
CA10 A#21 14#11 6.81444e-18
CA11 A#21 14#3 1.39525e-17
CA12 A#23 14#3 1.77335e-17
CA13 MX25/M0#g 14#3 1.38387e-17
CA14 MX25/M1#g 14#6 1.05585e-17
CA15 MX25/M1#g 14#11 3.63186e-18
CA16 A#23 14#12 2.29003e-17
CA17 A#23 14#6 3.12217e-18
CA18 A Y#21 4.30647e-18
CA19 A#21 Y#21 3.87203e-18
CA20 MX24/M1#g Y#21 8.69207e-18
CA21 A#21 MX24/M0#d 7.42339e-18
CA22 MX24/M1#g MX31/M0#d 3.1602e-18
CA23 MX24/M0#g Y#21 3.08895e-18
CA24 MX24/M1#g MX24/M0#d 1.55836e-17
CA25 MX24/M0#g MX24/M0#d 1.80696e-17
CA26 A MX24/M0#d 6.19513e-18
CA27 A#21 MX25/M0#d 2.82162e-17
CA28 MX25/M1#g VSS#8 3.34206e-18
CA29 MX25/M1#g VSS#4 4.67685e-18
CA30 MX25/M0#g VSS#4 4.67685e-18
CA31 A#23 MX25/M0#d 1.11901e-17
CA32 MX25/M0#g VSS#8 3.34206e-18
CA33 MX25/M0#g MX25/M0#d 1.32002e-17
CA34 MX25/M1#g MX25/M0#d 1.15e-17
CA35 A VDD#11 1.80467e-18
CA36 A#21 VDD#23 1.62397e-18
CA37 MX24/M1#g MX31/M0#s 1.65251e-17
CA38 MX24/M0#g VDD#11 5.35471e-18
CA39 MX24/M0#g MX24/M0#s 2.1781e-17
CA40 MX24/M1#g VDD#23 3.48283e-18
CA41 MX24/M0#g MX31/M0#s 4.20387e-18
CA42 MX24/M1#g VDD 1.30178e-17
CA43 A MX24/M0#s 2.39409e-17
CA44 MX24/M0#g VDD#23 5.24693e-18
CA45 MX24/M0#g VDD 1.38727e-17
CA46 A#21 MX24/M0#s 3.22547e-18
CA47 MX24/M1#g MX24/M0#s 3.96249e-18
CA48 MX24/M1#g VDD#10 3.96091e-18
CA49 A VDD 2.38727e-17
CA50 A B#21 6.912e-18
CA51 A#23 B#23 1.14161e-17
CA52 A B#23 4.90079e-18
CA53 A#21 B#23 1.22658e-17
CA54 A B 2.17602e-17
RgA1 MX24/M1#g A#15 435.658752 $L=1.375 $W=0.15
RgA2 A#15 A#16 20.521515 $L=0.218 $W=0.33
RgA3 A#16 A#17 20.521515 $L=0.218 $W=0.33
RgA4 A#17 A#18 46.128941 $L=0.1645 $W=0.17
RgA5 A#18 MX25/M0#g 170.377548 $L=0.53 $W=0.15
RgA6 A#15 A#19 46.128941 $L=0.1645 $W=0.17
RgA7 A#19 MX25/M1#g 170.377548 $L=0.53 $W=0.15
RgA8 A#17 A#20 46.131256 $L=0.1645 $W=0.17
RgA9 A#20 MX24/M0#g 388.884216 $L=1.21 $W=0.15
RfA10 A#21 A#22 17.317646 $L=0.23 $W=0.17
ReA11 A A#23 0.064904 $L=0.135 $W=0.26
RjA12 A#22 A#23 152.000000 $A=0.0289
RiA13 A#16 A#21 7.500000 $A=0.0578
*
*|NET 15 7.40805e-16
*|I (MX28/M0#d MX28/M0 d X 0 1.4105 0.9700)
*|I (MX28/M1#s MX28/M1 s X 0 1.6895 0.9700)
*|I (MX26/M0#d MX26/M0 d X 0 2.7905 0.9700)
*|I (MX26/M1#s MX26/M1 s X 0 3.0695 0.9700)
*|S (15 1.5500 1.1550)
*|S (15#3 1.5500 0.9700)
*|S (15#4 2.9300 1.1550)
*|S (15#6 2.9300 0.9700)
*|S (15#7 2.9300 1.1550)
*|S (15#8 1.5500 1.1550)
CJ1 MX26/M0#d VSS 3.38014e-18
CJ2 MX28/M0#d VSS 6.96691e-18
CJ3 15#8 VSS 2.01351e-17
CJ4 15#7 VSS 1.30837e-17
CJ5 15#7 VSS#2 2.75498e-18
CJ6 15#8 MX25/M0#d 2.65355e-18
CJ7 15#8 VSS#2 2.26141e-18
CJ8 MX28/M0#d VSS#8 5.73539e-18
CJ9 MX28/M0#d VSS#2 6.15033e-18
CJ10 MX26/M0#d VSS#8 4.84733e-18
CJ11 MX26/M0#d VSS#2 8.45624e-18
CJ12 15#7 VSS#8 5.57356e-18
CJ13 15#8 VSS#8 4.45111e-18
RfJ139 15 15#3 13.929411 $L=0.185 $W=0.17
RfJ140 15#4 15#6 13.929411 $L=0.185 $W=0.17
ReJ141 15#7 15#8 0.750000 $L=1.38 $W=0.23
RhJ142 MX28/M0#d 15#3 7.500000 $A=0.0578
RhJ143 MX26/M0#d 15#6 7.500000 $A=0.0578
RjJ144 15#4 15#7 152.000000 $A=0.0289
RjJ145 15 15#8 152.000000 $A=0.0289
RmwJ146 MX28/M1#s MX28/M0#d 0.001000 $W=1000000
RmwJ147 MX26/M1#s MX26/M0#d 0.001000 $W=1000000
*
*|NET D 6.47499e-16
*|P (D X 0 4.1550 2.0100)
*|I (MX29/M0#g MX29/M0 g X 0 3.5750 0.9700)
*|I (MX29/M1#g MX29/M1 g X 0 4.0050 0.9700)
*|I (MX30/M0#g MX30/M0 g X 0 3.5750 3.0400)
*|I (MX30/M1#g MX30/M1 g X 0 4.0050 3.0400)
*|S (D#15 4.0050 1.8750)
*|S (D#16 3.6150 1.8750)
*|S (D#17 4.0150 1.7100)
*|S (D#18 3.5650 1.7100)
*|S (D#19 3.5650 2.0395)
*|S (D#20 4.1400 1.8750)
*|S (D#21 3.6150 1.8750)
*|S (D#22 4.1400 1.8750)
CD1 MX30/M1#g VSS 6.40476e-20
CD2 MX30/M0#g VSS 3.23924e-20
CD3 MX29/M1#g VSS 5.58767e-18
CD4 MX29/M0#g VSS 1.33557e-17
CD5 D#22 VSS 2.65793e-17
CD6 D#21 VSS 2.22021e-17
CD7 D#20 VSS 2.47753e-17
CD8 D VSS 5.76617e-18
CD9 MX29/M0#g 2#9 2.84508e-18
CD10 MX29/M1#g 2#6 2.35079e-18
CD11 D#22 2#11 2.02997e-17
CD12 MX29/M1#g 2#11 3.54113e-18
CD13 D#21 2#13 3.93014e-18
CD14 MX29/M1#g 2#9 1.38509e-17
CD15 D#22 2#9 1.04979e-17
CD16 D#20 2#9 1.08899e-17
CD17 D#20 2#11 5.60498e-18
CD18 MX29/M0#g 2#6 1.05652e-17
CD19 MX30/M0#g MX27/M0#d 3.1602e-18
CD20 D#20 Y#17 3.09374e-18
CD21 MX30/M1#g Y#18 2.48473e-18
CD22 MX29/M1#g Y#17 2.00199e-18
CD23 MX29/M0#g Y#17 1.81004e-18
CD24 D#21 Y#18 1.74486e-18
CD25 D#21 Y 3.03325e-17
CD26 MX29/M1#g MX29/M0#d 1.20276e-17
CD27 D MX30/M0#d 5.70817e-18
CD28 MX30/M0#g Y#18 6.45863e-18
CD29 D#22 Y#17 2.80453e-17
CD30 D#22 Y 2.39547e-17
CD31 MX29/M0#g MX29/M0#d 1.05772e-17
CD32 D#21 MX29/M0#d 7.59172e-18
CD33 D Y#18 1.60863e-17
CD34 MX30/M0#g MX30/M0#d 1.56293e-17
CD35 MX30/M1#g MX30/M0#d 1.80879e-17
CD36 D Y 7.26986e-17
CD37 D#21 MX30/M0#d 5.53891e-18
CD38 D#20 VSS#8 3.23574e-18
CD39 MX29/M1#g VSS#8 2.96355e-18
CD40 MX29/M0#g VSS#8 2.96355e-18
CD41 MX29/M0#g VSS#2 6.26364e-18
CD42 MX29/M1#g VSS#2 6.26364e-18
CD43 MX30/M0#g VDD#23 3.02109e-18
CD44 D#20 VDD#23 2.62624e-18
CD45 MX30/M0#g VDD 1.41565e-17
CD46 D MX30/M1#d 3.39443e-17
CD47 D VDD#23 6.41705e-18
CD48 MX30/M0#g MX30/M1#d 4.46778e-18
CD49 MX30/M1#g MX30/M0#s 3.48231e-18
CD50 MX30/M1#g VDD#3 5.35471e-18
CD51 D#20 MX30/M1#d 8.72305e-18
CD52 MX30/M1#g MX30/M1#d 2.17315e-17
CD53 MX30/M0#g VDD#4 7.17149e-18
CD54 D VDD 3.07173e-17
CD55 MX30/M1#g VDD#23 5.56723e-18
CD56 MX30/M0#g MX30/M0#s 1.65251e-17
CD57 MX30/M1#g VDD 1.21325e-17
RgD40 MX30/M1#g D#15 368.178741 $L=1.165 $W=0.15
RgD41 D#15 D#16 46.082123 $L=0.393 $W=0.33
RgD42 D#15 D#17 46.128941 $L=0.1645 $W=0.17
RgD43 D#17 MX29/M1#g 237.857559 $L=0.74 $W=0.15
RgD44 D#16 D#18 46.713787 $L=0.1645 $W=0.17
RgD45 D#18 MX29/M0#g 237.857559 $L=0.74 $W=0.15
RgD46 D#16 D#19 46.713787 $L=0.1645 $W=0.17
RgD47 D#19 MX30/M0#g 321.404205 $L=1 $W=0.15
RfD48 D#20 D#21 39.529411 $L=0.525 $W=0.17
ReD49 D D#22 0.064904 $L=0.135 $W=0.26
RjD50 D#20 D#22 152.000000 $A=0.0289
RiD51 D#16 D#21 15.000000 $A=0.0289
*
*|NET 2 8.6224e-16
*|I (MX29/M0#s MX29/M0 s X 0 3.4995 0.9700)
*|I (MX29/M1#d MX29/M1 d X 0 4.0805 0.9700)
*|I (MX26/M0#s MX26/M0 s X 0 2.6395 0.9700)
*|I (MX26/M1#d MX26/M1 d X 0 3.2205 0.9700)
*|S (2 2.5000 0.9700)
*|S (2#2 2.5000 0.9700)
*|S (2#3 2.5000 0.7550)
*|S (2#5 3.3600 0.9700)
*|S (2#6 3.3600 0.7550)
*|S (2#8 4.2200 0.9700)
*|S (2#9 4.2200 0.7550)
*|S (2#10 4.2200 0.7550)
*|S (2#11 4.1050 0.7175)
*|S (2#12 3.3600 0.7550)
*|S (2#13 3.2450 0.7175)
*|S (2#14 2.6145 0.7175)
*|S (2#15 2.5000 0.7550)
CH1 2#14 VSS 1.65084e-17
CH2 2#13 VSS 1.09698e-17
CH3 2#11 VSS 3.13239e-17
CH4 2#3 VSS 3.80777e-18
CH5 2#6 VSS 2.49615e-18
CH6 2#9 VSS 1.61195e-17
CH7 2#13 MX26/M0#d 1.38782e-17
CH8 2#14 15#7 6.76038e-17
CH9 2#6 15#7 5.67494e-18
CH10 2#3 MX26/M0#d 3.62102e-17
CH11 2#3 15#7 2.25673e-17
CH12 2#14 MX26/M0#d 1.37276e-17
CH13 2#13 15#7 9.80062e-18
CH14 2#6 MX26/M0#d 3.67161e-17
CH15 2#3 14#10 3.68114e-18
CH16 2#3 14#9 2.73587e-17
CH17 2#14 14#10 2.66263e-17
CH18 2#14 14#9 6.59876e-18
CH19 2#14 VSS#8 4.09079e-17
CH20 2#13 VSS#8 6.2977e-17
CH21 2#11 VSS#2 9.71457e-18
CH22 2#3 VSS#8 5.36676e-18
CH23 2#9 VSS#8 5.03093e-18
CH24 2#14 VSS#2 9.00427e-18
CH25 2#11 VSS#8 4.40411e-17
CH26 2#13 VSS#2 1.33931e-17
CH27 2#6 VSS#2 8.45666e-18
CH28 2#6 VSS#8 5.36676e-18
CH29 2#3 VSS#2 8.45666e-18
CH30 2#9 VSS#2 8.45666e-18
RfH110 2#2 2#3 16.188236 $L=0.215 $W=0.17
RfH111 2#5 2#6 16.188236 $L=0.215 $W=0.17
RfH112 2#8 2#9 16.188236 $L=0.215 $W=0.17
ReH113 2#10 2#11 0.050022 $L=0.1145 $W=0.365
ReH114 2#11 2#12 0.381860 $L=0.745 $W=0.23
ReH115 2#12 2#13 0.050022 $L=0.1145 $W=0.365
ReH116 2#13 2#14 0.342563 $L=0.63 $W=0.23
ReH117 2#14 2#15 0.050022 $L=0.1145 $W=0.365
RhH118 2 2#2 7.500000 $A=0.0578
RhH119 MX29/M0#s 2#5 7.500000 $A=0.0578
RhH120 MX29/M1#d 2#8 7.500000 $A=0.0578
RjH121 2#9 2#10 152.000000 $A=0.0289
RjH122 2#6 2#12 152.000000 $A=0.0289
RjH123 2#3 2#15 152.000000 $A=0.0289
RmwH124 MX26/M0#s 2 0.001000 $W=1000000
RmwH125 MX26/M1#d MX29/M0#s 0.001000 $W=1000000
*
*|NET C 5.72713e-16
*|P (C X 0 2.7750 2.0650)
*|I (MX26/M0#g MX26/M0 g X 0 2.7150 0.9700)
*|I (MX26/M1#g MX26/M1 g X 0 3.1450 0.9700)
*|I (MX27/M0#g MX27/M0 g X 0 2.7150 3.0400)
*|I (MX27/M1#g MX27/M1 g X 0 3.1450 3.0400)
*|S (C#15 3.1450 1.6650)
*|S (C#16 2.9300 1.6650)
*|S (C#17 2.7050 1.6650)
*|S (C#18 2.7050 1.5000)
*|S (C#19 3.1550 1.5000)
*|S (C#20 2.7050 1.8295)
*|S (C#21 2.9300 1.6650)
*|S (C#22 2.7600 1.6650)
*|S (C#23 2.7600 1.6650)
CC1 MX27/M0#g VSS 9.67729e-19
CC2 MX26/M1#g VSS 6.55055e-18
CC3 MX26/M0#g VSS 1.20249e-17
CC4 C#23 VSS 1.63661e-17
CC5 C#21 VSS 3.63983e-17
CC6 C VSS 9.76318e-18
CC7 C#21 MX26/M0#d 2.38063e-17
CC8 MX26/M1#g MX26/M0#d 1.05705e-17
CC9 C#23 MX26/M0#d 3.9359e-18
CC10 C#23 15#7 4.51785e-17
CC11 C#21 15#7 1.30741e-17
CC12 MX26/M0#g MX26/M0#d 1.10708e-17
CC13 MX26/M0#g 2#14 2.35925e-18
CC14 MX26/M0#g 2#6 2.11512e-18
CC15 MX26/M1#g 2#3 2.02067e-18
CC16 C#21 2#13 6.55879e-18
CC17 MX26/M1#g 2#13 3.74619e-18
CC18 MX26/M1#g 2#6 1.05652e-17
CC19 MX26/M0#g 2#3 1.21165e-17
CC20 MX26/M1#g MX29/M0#d 2.12183e-18
CC21 MX27/M0#g Y#19 1.95237e-18
CC22 C MX27/M0#d 2.16293e-17
CC23 C Y#19 1.3729e-17
CC24 C#23 Y 8.349e-18
CC25 C Y#18 5.61171e-18
CC26 C#21 Y#19 3.86981e-18
CC27 C#21 Y#17 5.81657e-18
CC28 C#23 Y#17 9.73088e-18
CC29 C#21 Y 6.2866e-18
CC30 C#21 MX27/M0#d 4.56062e-18
CC31 C Y 2.52491e-17
CC32 MX27/M0#g MX27/M0#d 1.63585e-17
CC33 MX27/M1#g MX30/M0#d 3.1602e-18
CC34 MX27/M1#g MX27/M0#d 1.55836e-17
CC35 MX27/M1#g Y#19 7.43246e-18
CC36 C#21 VSS#8 2.26862e-18
CC37 MX26/M0#g VSS#2 6.26364e-18
CC38 MX26/M0#g VSS#8 2.96355e-18
CC39 MX26/M1#g VSS#2 6.26364e-18
CC40 MX26/M1#g VSS#8 2.96355e-18
CC41 MX27/M0#g MX30/M0#s 3.56693e-18
CC42 MX27/M0#g MX31/M1#d 5.28261e-18
CC43 MX27/M0#g VDD#7 7.17149e-18
CC44 C MX27/M0#s 1.32781e-17
CC45 MX27/M1#g MX27/M0#s 3.21967e-18
CC46 C MX30/M0#s 4.67248e-18
CC47 C MX31/M1#d 3.18684e-18
CC48 MX27/M1#g MX30/M0#s 1.65251e-17
CC49 MX27/M1#g VDD#23 3.48283e-18
CC50 MX27/M1#g VDD 1.30178e-17
CC51 MX27/M0#g VDD#23 3.48283e-18
CC52 MX27/M0#g VDD 1.71364e-17
CC53 C VDD 9.11659e-18
CC54 MX27/M0#g MX27/M0#s 1.90363e-17
CC55 MX27/M1#g VDD#4 4.63535e-18
RgC27 MX27/M1#g C#15 435.658752 $L=1.375 $W=0.15
RgC28 C#15 C#16 20.521515 $L=0.218 $W=0.33
RgC29 C#16 C#17 20.521515 $L=0.218 $W=0.33
RgC30 C#17 C#18 46.128941 $L=0.1645 $W=0.17
RgC31 C#18 MX26/M0#g 170.377548 $L=0.53 $W=0.15
RgC32 C#15 C#19 46.128941 $L=0.1645 $W=0.17
RgC33 C#19 MX26/M1#g 170.377548 $L=0.53 $W=0.15
RgC34 C#17 C#20 46.131256 $L=0.1645 $W=0.17
RgC35 C#20 MX27/M0#g 388.884216 $L=1.21 $W=0.15
RfC36 C#21 C#22 12.800000 $L=0.17 $W=0.17
ReC37 C C#23 0.192308 $L=0.4 $W=0.26
RjC38 C#22 C#23 152.000000 $A=0.0289
RiC39 C#16 C#21 7.500000 $A=0.0578
*
*|NET B 5.69984e-16
*|P (B X 0 1.5300 2.0100)
*|I (MX28/M0#g MX28/M0 g X 0 1.3350 0.9700)
*|I (MX28/M1#g MX28/M1 g X 0 1.7650 0.9700)
*|I (MX31/M0#g MX31/M0 g X 0 1.3350 3.0400)
*|I (MX31/M1#g MX31/M1 g X 0 1.7650 3.0400)
*|S (B#15 1.7650 1.8750)
*|S (B#16 1.5500 1.8750)
*|S (B#17 1.3250 1.8750)
*|S (B#18 1.3250 1.7100)
*|S (B#19 1.7750 1.7100)
*|S (B#20 1.3250 2.0395)
*|S (B#21 1.5500 1.8750)
*|S (B#22 1.5150 1.8750)
*|S (B#23 1.5150 1.8750)
CB1 MX31/M1#g VSS 8.11011e-19
CB2 MX31/M0#g VSS 1.14642e-18
CB3 MX28/M1#g VSS 1.90058e-17
CB4 MX28/M0#g VSS 1.4822e-17
CB5 B#23 VSS 2.02882e-17
CB6 B#21 VSS 2.85182e-17
CB7 B VSS 5.4352e-18
CB8 MX28/M1#g 15#8 3.21748e-18
CB9 B#21 15#8 9.35917e-18
CB10 MX28/M0#g MX28/M0#d 1.05713e-17
CB11 B#23 MX28/M0#d 9.13401e-18
CB12 B#21 MX28/M0#d 1.01833e-17
CB13 B#23 15#8 4.34e-17
CB14 MX28/M1#g MX28/M0#d 1.10677e-17
CB15 MX28/M1#g 14#6 2.10569e-18
CB16 MX28/M0#g 14#9 2.01342e-18
CB17 MX28/M0#g 14#11 3.19576e-18
CB18 B#23 14#11 5.24838e-18
CB19 MX28/M1#g 14#9 1.21415e-17
CB20 MX28/M0#g 14#6 1.05585e-17
CB21 B#21 14#11 4.99637e-18
CB22 B MX24/M0#d 2.42161e-18
CB23 MX31/M0#g Y#20 3.93957e-18
CB24 B MX31/M0#d 2.39239e-17
CB25 MX31/M0#g MX24/M0#d 3.1602e-18
CB26 MX31/M0#g MX31/M0#d 1.55967e-17
CB27 MX31/M1#g MX31/M0#d 1.63698e-17
CB28 B#21 MX31/M0#d 8.54588e-18
CB29 B Y#20 1.20222e-17
CB30 MX31/M1#g Y#20 4.1574e-18
CB31 B#21 Y#20 9.17051e-18
CB32 MX28/M0#g MX25/M0#d 2.32419e-18
CB33 MX28/M0#g VSS#8 3.34206e-18
CB34 MX28/M0#g VSS#4 6.26364e-18
CB35 MX28/M1#g VSS#2 6.26364e-18
CB36 MX28/M1#g VSS#8 3.34206e-18
CB37 B MX24/M0#s 1.51668e-18
CB38 B#21 VDD#23 1.43388e-18
CB39 MX31/M1#g VDD#23 3.48283e-18
CB40 MX31/M1#g VDD 1.2661e-17
CB41 MX31/M1#g MX31/M0#s 3.41912e-18
CB42 MX31/M0#g VDD#23 3.48283e-18
CB43 MX31/M0#g VDD 1.40222e-17
CB44 MX31/M0#g VDD#10 4.496e-18
CB45 MX31/M1#g MX31/M1#d 1.90967e-17
CB46 MX31/M1#g MX27/M0#s 5.28261e-18
CB47 B MX31/M1#d 6.06081e-18
CB48 MX31/M0#g MX31/M0#s 1.65251e-17
CB49 B MX31/M0#s 6.84139e-18
CB50 B VDD 1.45545e-17
CB51 MX31/M1#g VDD#9 3.8952e-18
CB52 MX31/M0#g MX31/M1#d 3.34667e-18
CB53 B#21 C 1.82093e-18
CB54 B#23 C#23 1.20704e-17
CB55 B#21 C#23 3.81572e-18
CB56 B#23 C#21 4.72849e-18
CB57 B C 2.2113e-17
RgB14 MX31/M1#g B#15 368.178741 $L=1.165 $W=0.15
RgB15 B#15 B#16 20.521515 $L=0.218 $W=0.33
RgB16 B#16 B#17 20.521515 $L=0.218 $W=0.33
RgB17 B#17 B#18 46.128941 $L=0.1645 $W=0.17
RgB18 B#18 MX28/M0#g 237.857559 $L=0.74 $W=0.15
RgB19 B#15 B#19 46.128941 $L=0.1645 $W=0.17
RgB20 B#19 MX28/M1#g 237.857559 $L=0.74 $W=0.15
RgB21 B#17 B#20 46.131256 $L=0.1645 $W=0.17
RgB22 B#20 MX31/M0#g 321.404205 $L=1 $W=0.15
RfB23 B#21 B#22 2.635294 $L=0.035 $W=0.17
ReB24 B B#23 0.064904 $L=0.135 $W=0.26
RjB25 B#22 B#23 152.000000 $A=0.0289
RiB26 B#16 B#21 7.500000 $A=0.0578
*
*Instance Section
*
MX29/M0	MX29/M0#d	MX29/M0#g	MX29/M0#s	VSS	nfet_01v8
+ L=1.5e-07	W=8.4e-07
MX29/M1	MX29/M1#d	MX29/M1#g	MX29/M1#s	VSS	nfet_01v8
+ L=1.5e-07	W=8.4e-07
MX28/M0	MX28/M0#d	MX28/M0#g	MX28/M0#s	VSS	nfet_01v8
+ L=1.5e-07	W=8.4e-07
MX28/M1	MX28/M1#d	MX28/M1#g	MX28/M1#s	VSS	nfet_01v8
+ L=1.5e-07	W=8.4e-07
MX26/M0	MX26/M0#d	MX26/M0#g	MX26/M0#s	VSS	nfet_01v8
+ L=1.5e-07	W=8.4e-07
MX26/M1	MX26/M1#d	MX26/M1#g	MX26/M1#s	VSS	nfet_01v8
+ L=1.5e-07	W=8.4e-07
MX25/M0	MX25/M0#d	MX25/M0#g	MX25/M0#s	VSS	nfet_01v8
+ L=1.5e-07	W=8.4e-07
MX25/M1	MX25/M1#d	MX25/M1#g	MX25/M1#s	VSS	nfet_01v8
+ L=1.5e-07	W=8.4e-07
MX31/M0	MX31/M0#d	MX31/M0#g	MX31/M0#s	VDD	pfet_01v8_hvt
+ L=1.5e-07	W=1.24e-06
MX31/M1	MX31/M1#d	MX31/M1#g	MX31/M1#s	VDD	pfet_01v8_hvt
+ L=1.5e-07	W=1.24e-06
MX30/M0	MX30/M0#d	MX30/M0#g	MX30/M0#s	VDD	pfet_01v8_hvt
+ L=1.5e-07	W=1.24e-06
MX30/M1	MX30/M1#d	MX30/M1#g	MX30/M1#s	VDD	pfet_01v8_hvt
+ L=1.5e-07	W=1.24e-06
MX27/M0	MX27/M0#d	MX27/M0#g	MX27/M0#s	VDD	pfet_01v8_hvt
+ L=1.5e-07	W=1.24e-06
MX27/M1	MX27/M1#d	MX27/M1#g	MX27/M1#s	VDD	pfet_01v8_hvt
+ L=1.5e-07	W=1.24e-06
MX24/M0	MX24/M0#d	MX24/M0#g	MX24/M0#s	VDD	pfet_01v8_hvt
+ L=1.5e-07	W=1.24e-06
MX24/M1	MX24/M1#d	MX24/M1#g	MX24/M1#s	VDD	pfet_01v8_hvt
+ L=1.5e-07	W=1.24e-06
.ENDS
