*
*|DSPF 1.5
*
*|DATE "Fri Feb 28 12:46:53 2025"
*|VENDOR "Cadence Design Systems"
*|PROGRAM "Cadence Quantus Extraction"
*|VERSION "22.1.0-p089 Linux 64 bit - (Thu Jan 19 11:47:08 PST 2023)"
*|DESIGN "NOR3X4_LP"
*|DIVIDER /
*|DELIMITER #
*|DeviceFingerDelim "@"
*|BUSBIT []
*|GLOBAL_TEMPERATURE 25
*|OPERATING_TEMPERATURE 25
** QRC_TECH_DIR /vols/wfo_devel/projects/reference_SKY130/tech/sky130_release_0.0.4/quantus/extraction/typical 
** HIERARCHICAL_SPLIT_PINS_DELIMITER '%'
** caps2d version: 10
*
.SUBCKT  NOR3X4_LP A B C VDD VSS Y
*
*Net Section
*
*|GROUND_NET VSS
*
*|NET 12 9.9129e-16
*|I (MX23/M0#s MX23/M0 s X 0 2.3605 3.0400)
*|I (MX23/M1#d MX23/M1 d X 0 1.7795 3.0400)
*|I (MX18/M0#s MX18/M0 s X 0 3.2205 3.0400)
*|I (MX18/M1#d MX18/M1 d X 0 2.6395 3.0400)
*|S (12 1.6400 3.3850)
*|S (12#3 1.6400 3.0400)
*|S (12#4 2.5000 3.3850)
*|S (12#6 2.5000 3.0400)
*|S (12#7 3.3600 3.3850)
*|S (12#9 3.3600 3.0400)
*|S (12#10 3.3600 3.3850)
*|S (12#11 2.5000 3.3850)
*|S (12#12 1.6400 3.3850)
CH1 MX18/M0#s VSS 2.94734e-18
CH2 MX23/M1#d VSS 6.53875e-18
CH3 MX23/M0#s VSS 3.32959e-18
CH4 12#12 VSS 6.83649e-18
CH5 12#11 VSS 3.5399e-18
CH6 12#10 VSS 9.5043e-19
CH7 MX23/M0#s MX22/M0#s 3.60337e-18
CH8 MX23/M1#d MX19/M0#s 2.54356e-18
CH9 12#11 MX22/M0#s 1.66691e-18
RfH93 12 12#3 25.976471 $L=0.345 $W=0.17
RfH94 12#4 12#6 25.976471 $L=0.345 $W=0.17
RfH95 12#7 12#9 25.976471 $L=0.345 $W=0.17
ReH96 12#10 12#11 0.467391 $L=0.86 $W=0.23
ReH97 12#11 12#12 0.467391 $L=0.86 $W=0.23
Rh_2_H98 MX23/M1#d 12#3 5.000000 $A=0.0867
Rh_2_H99 MX23/M0#s 12#6 5.000000 $A=0.0867
Rh_2_H100 MX18/M0#s 12#9 5.000000 $A=0.0867
RjH101 12#7 12#10 152.000000 $A=0.0289
RjH102 12#4 12#11 152.000000 $A=0.0289
RjH103 12 12#12 152.000000 $A=0.0289
RmwH104 MX18/M1#d MX23/M0#s 0.001000 $W=1000000
*
*|NET 11 7.78028e-16
*|I (MX23/M0#d MX23/M0 d X 0 2.2095 3.0400)
*|I (MX23/M1#s MX23/M1 s X 0 1.9305 3.0400)
*|I (MX21/M0#d MX21/M0 d X 0 0.8295 3.0400)
*|I (MX21/M1#s MX21/M1 s X 0 0.5505 3.0400)
*|S (11 0.6900 3.0400)
*|S (11#2 0.6900 3.0400)
*|S (11#3 0.6900 3.0150)
*|S (11#5 2.0700 3.0400)
*|S (11#6 2.0700 3.0150)
*|S (11#7 2.0700 3.0150)
*|S (11#8 0.6900 3.0150)
CG1 MX23/M0#d VSS 3.91399e-18
CG2 11#8 VSS 6.92415e-18
CG3 11#7 VSS 9.23071e-18
CG4 11 VSS 4.98338e-18
CG5 MX23/M0#d 12#11 1.08639e-17
CG6 11#7 12#12 8.3436e-17
CG7 11#7 MX23/M1#d 2.53584e-17
CG8 MX23/M0#d MX23/M0#s 5.72579e-17
CG9 MX23/M0#d 12#12 1.09125e-17
CG10 MX23/M0#d MX23/M1#d 5.40679e-17
CG11 11#7 12#11 1.83148e-17
CG12 11#7 MX23/M0#s 5.78569e-18
CG13 11#8 VSS#9 2.3031e-18
CG14 11#7 MX19/M0#s 2.10924e-18
CG15 11#8 MX20/M1#d 4.23877e-18
RfG83 11#2 11#3 1.882353 $L=0.025 $W=0.17
RfG84 11#5 11#6 1.882353 $L=0.025 $W=0.17
ReG85 11#7 11#8 0.750000 $L=1.38 $W=0.23
Rh_2_G86 11 11#2 5.000000 $A=0.0867
Rh_2_G87 MX23/M0#d 11#5 5.000000 $A=0.0867
RjG88 11#6 11#7 152.000000 $A=0.0289
RjG89 11#3 11#8 152.000000 $A=0.0289
RmwG90 MX23/M1#s MX23/M0#d 0.001000 $W=1000000
RmwG91 MX21/M0#d 11 0.001000 $W=1000000
RmwG92 MX21/M1#s 11 0.001000 $W=1000000
*
*|NET B 5.97753e-16
*|P (B X 0 1.8550 2.0500)
*|I (MX19/M0#g MX19/M0 g X 0 1.8550 0.9600)
*|I (MX19/M1#g MX19/M1 g X 0 2.2850 0.9600)
*|I (MX23/M0#g MX23/M0 g X 0 2.2850 3.0400)
*|I (MX23/M1#g MX23/M1 g X 0 1.8550 3.0400)
*|S (B#15 2.2850 1.8850)
*|S (B#16 2.0700 1.8850)
*|S (B#17 1.8550 1.8850)
*|S (B#18 2.0700 1.8850)
*|S (B#19 1.8400 2.1350)
*|S (B#20 1.8400 2.1350)
CB1 MX23/M1#g VSS 1.41446e-18
CB2 MX19/M1#g VSS 1.32959e-17
CB3 MX19/M0#g VSS 1.42405e-17
CB4 B#20 VSS 2.10801e-17
CB5 B#18 VSS 2.16151e-17
CB6 B#19 VSS 6.13918e-18
CB7 MX23/M1#g 12#12 1.71094e-18
CB8 B#19 MX23/M1#d 1.32944e-17
CB9 MX23/M0#g MX23/M1#d 3.05523e-18
CB10 B#20 MX23/M1#d 2.04477e-17
CB11 B#20 MX23/M0#s 3.99843e-18
CB12 MX23/M1#g MX23/M0#s 3.24617e-18
CB13 MX23/M1#g MX23/M1#d 1.79115e-17
CB14 MX23/M0#g 12#11 6.07818e-18
CB15 MX23/M0#g MX23/M0#s 1.55802e-17
CB16 MX23/M1#g 11#7 1.38934e-18
CB17 B#19 MX23/M0#d 1.48239e-17
CB18 MX23/M1#g MX23/M0#d 1.63265e-17
CB19 B#19 11#7 4.48095e-18
CB20 B#20 MX23/M0#d 1.20678e-17
CB21 B#20 11#7 3.27763e-17
CB22 MX23/M0#g 11#7 3.78027e-18
CB23 MX23/M0#g MX23/M0#d 1.5593e-17
CB24 MX19/M0#g Y#16 2.42874e-18
CB25 MX19/M1#g Y#12 2.0687e-18
CB26 MX19/M1#g Y#6 1.05618e-17
CB27 B#20 Y#14 1.18797e-17
CB28 B#20 Y#16 2.20074e-17
CB29 MX23/M0#g MX18/M0#d 3.15169e-18
CB30 MX19/M0#g Y#6 1.11028e-17
CB31 MX19/M1#g Y#16 4.59514e-18
CB32 B#18 Y#16 3.26867e-18
CB33 B#18 Y 1.06285e-17
CB34 B#20 Y#15 3.26267e-18
CB35 MX23/M0#g Y#16 5.0221e-18
CB36 B#18 Y#6 1.6172e-17
CB37 B#19 Y 5.6827e-18
CB38 B#20 Y 3.46874e-17
CB39 MX19/M1#g VSS#4 2.69971e-18
CB40 MX19/M0#g MX22/M0#s 2.42645e-18
CB41 MX19/M1#g MX19/M0#s 2.29519e-18
CB42 MX19/M0#g MX20/M1#d 3.6027e-18
CB43 B#19 MX19/M0#s 3.27869e-18
CB44 MX19/M0#g VSS#20 3.31201e-18
CB45 B#20 MX19/M0#s 6.57656e-18
CB46 MX19/M1#g VSS#20 3.31201e-18
CB47 MX19/M1#g MX22/M0#s 1.15034e-17
CB48 MX19/M0#g VSS#8 3.15531e-18
CB49 MX19/M0#g MX19/M0#s 1.32695e-17
CB50 MX23/M0#g VDD 1.18978e-17
CB51 B#20 VDD 4.01122e-18
CB52 B#19 VDD 9.60097e-18
CB53 B#20 MX21/M0#s 4.04446e-18
CB54 MX23/M1#g VDD#1 7.17149e-18
CB55 MX23/M0#g VDD#1 4.09108e-18
CB56 MX23/M0#g VDD#11 3.54546e-18
CB57 MX23/M1#g MX21/M0#s 5.14186e-18
CB58 MX23/M1#g VDD#11 3.54546e-18
CB59 MX23/M1#g VDD 1.59422e-17
CB60 B#18 C#20 7.98295e-18
CB61 B#20 C#20 3.51397e-18
RgB11 MX23/M0#g B#15 361.749023 $L=1.155 $W=0.15
RgB12 B#15 B#16 10.107612 $L=0.215 $W=0.67
RgB13 B#16 B#17 10.107612 $L=0.215 $W=0.67
RgB14 B#17 MX19/M0#g 287.842346 $L=0.925 $W=0.15
RgB15 B#15 MX19/M1#g 287.842346 $L=0.925 $W=0.15
RgB16 B#17 MX23/M1#g 361.749023 $L=1.155 $W=0.15
RfB17 B#18 B#19 30.492905 $L=0.48 $W=0.17
ReB18 B#20 B 0.040865 $L=0.085 $W=0.26
RjB19 B#19 B#20 152.000000 $A=0.0289
RiB20 B#16 B#18 7.500000 $A=0.0578
*
*|NET A 5.6024e-16
*|P (A X 0 0.4750 2.1450)
*|I (MX20/M0#g MX20/M0 g X 0 0.4750 0.9600)
*|I (MX20/M1#g MX20/M1 g X 0 0.9050 0.9600)
*|I (MX21/M0#g MX21/M0 g X 0 0.9050 3.0400)
*|I (MX21/M1#g MX21/M1 g X 0 0.4750 3.0400)
*|S (A#15 0.9050 1.8850)
*|S (A#16 0.6900 1.8850)
*|S (A#17 0.4750 1.8850)
*|S (A#18 0.6900 1.8850)
*|S (A#19 0.4600 2.1350)
*|S (A#20 0.4600 2.1350)
CA1 MX21/M0#g VSS 5.55166e-18
CA2 MX20/M1#g VSS 1.20941e-17
CA3 MX20/M0#g VSS 1.38151e-17
CA4 A#18 VSS 2.88458e-17
CA5 A#19 VSS 9.10054e-18
CA6 A VSS 4.09053e-17
CA7 MX20/M1#g 11#8 2.14075e-18
CA8 A#19 11 1.48239e-17
CA9 MX21/M1#g 11#8 3.63541e-18
CA10 MX21/M0#g 11#8 6.25878e-18
CA11 A 11#8 8.51348e-18
CA12 MX21/M1#g 11 1.80221e-17
CA13 A 11 9.41119e-18
CA14 MX21/M0#g 11 1.64307e-17
CA15 A#19 11#8 3.4714e-18
CA16 MX20/M0#g Y#17 2.48473e-18
CA17 A#18 Y#3 1.6172e-17
CA18 A Y#3 4.83616e-18
CA19 MX20/M1#g Y#3 1.11028e-17
CA20 A MX20/M0#d 2.86092e-18
CA21 MX20/M1#g Y#17 4.59514e-18
CA22 MX21/M0#g Y#17 5.13643e-18
CA23 A Y#17 9.99263e-18
CA24 MX20/M0#g Y#3 1.21482e-17
CA25 A#18 Y#17 3.26867e-18
CA26 MX20/M1#g VSS#9 2.64136e-18
CA27 A MX20/M1#d 1.85368e-18
CA28 A VSS#10 1.38553e-18
CA29 MX20/M1#g MX19/M0#s 3.6027e-18
CA30 MX20/M1#g MX20/M1#d 1.32695e-17
CA31 MX20/M0#g MX20/M1#d 2.84741e-18
CA32 A#19 MX20/M0#s 3.14549e-18
CA33 MX20/M1#g MX20/M0#s 3.40968e-18
CA34 MX20/M1#g VSS#20 3.31201e-18
CA35 MX20/M0#g MX20/M0#s 1.51495e-17
CA36 A VSS#20 5.06848e-18
CA37 A MX20/M0#s 1.59294e-17
CA38 MX20/M0#g VSS#20 4.55321e-18
CA39 MX20/M0#g VSS#10 3.15531e-18
CA40 A MX21/M1#d 1.95572e-17
CA41 A VDD#11 3.23026e-18
CA42 A MX21/M0#s 2.83888e-18
CA43 MX21/M1#g MX21/M0#s 4.25673e-18
CA44 MX21/M0#g MX21/M1#d 4.3477e-18
CA45 A#19 VDD 1.09862e-17
CA46 MX21/M1#g VDD#5 5.35471e-18
CA47 MX21/M0#g MX21/M0#s 1.91092e-17
CA48 A#19 MX21/M1#d 1.42513e-17
CA49 MX21/M1#g VDD 1.33233e-17
CA50 MX21/M0#g VDD 1.18289e-17
CA51 MX21/M1#g MX21/M1#d 2.17576e-17
CA52 MX21/M0#g VDD#4 5.14421e-18
CA53 A VDD 1.93099e-17
CA54 MX21/M0#g VDD#11 4.64072e-18
CA55 MX21/M1#g VDD#11 4.39599e-18
CA56 A#18 B#20 9.09563e-18
CA57 A#18 B#18 3.03666e-18
CA58 A B#20 2.80642e-17
CA59 A B#18 4.21205e-18
CA60 A B#19 3.20899e-18
CA61 A#19 B#19 3.34874e-18
RgA1 MX21/M0#g A#15 361.749023 $L=1.155 $W=0.15
RgA2 A#15 A#16 10.107612 $L=0.215 $W=0.67
RgA3 A#16 A#17 10.107612 $L=0.215 $W=0.67
RgA4 A#17 MX20/M0#g 287.842346 $L=0.925 $W=0.15
RgA5 A#15 MX20/M1#g 287.842346 $L=0.925 $W=0.15
RgA6 A#17 MX21/M1#g 361.749023 $L=1.155 $W=0.15
RfA7 A#18 A#19 30.492905 $L=0.48 $W=0.17
ReA8 A#20 A 0.004808 $L=0.01 $W=0.26
RjA9 A#19 A#20 152.000000 $A=0.0289
RiA10 A#16 A#18 7.500000 $A=0.0578
*
*|NET Y 1.42898e-15
*|P (Y X 0 2.7750 2.0250)
*|I (MX22/M0#d MX22/M0 d X 0 2.7905 0.9600)
*|I (MX22/M1#s MX22/M1 s X 0 3.0695 0.9600)
*|I (MX20/M0#d MX20/M0 d X 0 0.5505 0.9600)
*|I (MX20/M1#s MX20/M1 s X 0 0.8295 0.9600)
*|I (MX19/M0#d MX19/M0 d X 0 1.9305 0.9600)
*|I (MX19/M1#s MX19/M1 s X 0 2.2095 0.9600)
*|I (MX18/M0#d MX18/M0 d X 0 3.0695 3.0400)
*|I (MX18/M1#s MX18/M1 s X 0 2.7905 3.0400)
*|S (Y#2 0.6900 0.9600)
*|S (Y#3 0.6900 0.7550)
*|S (Y#5 2.0700 0.9600)
*|S (Y#6 2.0700 0.7550)
*|S (Y#8 2.9300 3.0400)
*|S (Y#9 2.9300 2.9450)
*|S (Y#11 2.9300 0.9600)
*|S (Y#12 2.9300 0.7550)
*|S (Y#13 2.9300 2.9450)
*|S (Y#14 2.8375 2.8000)
*|S (Y#15 2.9300 0.7550)
*|S (Y#16 2.0700 0.7550)
*|S (Y#17 0.6900 0.7550)
CF1 Y#17 VSS 1.71674e-17
CF2 Y#16 VSS 2.05758e-17
CF3 Y#15 VSS 1.82452e-17
CF4 Y#14 VSS 8.80952e-18
CF5 Y#3 VSS 2.47155e-18
CF6 Y#6 VSS 2.81622e-18
CF7 Y#12 VSS 2.75436e-19
CF8 Y VSS 3.79958e-18
CF9 Y#16 MX23/M1#d 2.83748e-18
CF10 MX18/M0#d MX23/M0#s 5.41409e-17
CF11 MX18/M0#d MX18/M0#s 5.64301e-17
CF12 Y#14 MX18/M0#s 1.23471e-17
CF13 Y#14 12#11 3.62963e-17
CF14 MX18/M0#d 12#10 1.16004e-17
CF15 Y#14 MX23/M0#s 2.09553e-17
CF16 MX18/M0#d 12#11 1.09608e-17
CF17 Y#14 12#10 1.95777e-17
CF18 Y#17 11 2.78782e-18
CF19 Y#16 MX23/M0#d 2.78782e-18
CF20 MX18/M0#d 11#7 1.9705e-18
CF21 Y#14 11#7 1.72429e-17
CF22 Y#14 MX23/M0#d 6.00082e-18
CF23 Y#6 VSS#8 5.67928e-18
CF24 Y#12 VSS#20 5.58801e-18
CF25 Y#6 VSS#20 5.44219e-18
CF26 Y#3 VSS#20 5.42463e-18
CF27 Y#15 VSS#4 4.55534e-18
CF28 Y#3 VSS#10 2.83964e-18
CF29 Y#12 VSS#4 2.83964e-18
CF30 Y#3 VSS#9 2.81194e-18
CF31 Y#12 VSS#3 2.81194e-18
CF32 Y#15 VSS#3 2.78642e-18
CF33 Y#15 VSS#20 4.12052e-17
CF34 Y#3 MX20/M0#s 4.09413e-17
CF35 Y#15 MX22/M1#d 1.46609e-17
CF36 Y#6 MX22/M0#s 3.7225e-17
CF37 Y#16 VSS#8 7.21113e-18
CF38 Y#16 VSS#20 6.00002e-17
CF39 Y#17 VSS#9 6.61362e-18
CF40 Y#15 MX22/M0#s 3.73893e-17
CF41 Y#12 MX22/M1#d 3.96649e-17
CF42 Y#16 MX22/M0#s 8.69543e-18
CF43 Y#17 VSS#20 5.09882e-17
CF44 Y#17 MX20/M1#d 3.40261e-17
CF45 Y#3 MX20/M1#d 3.93463e-17
CF46 Y#12 MX22/M0#s 3.65568e-17
CF47 Y#6 MX19/M0#s 3.84495e-17
CF48 Y#17 MX20/M0#s 8.91299e-18
CF49 Y#16 MX19/M0#s 3.41281e-17
RfF62 Y#2 Y#3 15.435293 $L=0.205 $W=0.17
RfF63 Y#5 Y#6 15.435293 $L=0.205 $W=0.17
RfF64 Y#8 Y#9 7.152941 $L=0.095 $W=0.17
RfF65 Y#11 Y#12 15.435293 $L=0.205 $W=0.17
ReF66 Y#13 Y#14 0.055720 $L=0.1445 $W=0.415
ReF67 Y#14 Y 0.372671 $L=0.775 $W=0.26
ReF68 Y Y#15 0.584540 $L=1.27 $W=0.26
ReF69 Y#15 Y#16 0.370690 $L=0.86 $W=0.29
ReF70 Y#16 Y#17 0.594828 $L=1.38 $W=0.29
RhF71 MX20/M0#d Y#2 7.500000 $A=0.0578
RhF72 MX19/M0#d Y#5 7.500000 $A=0.0578
RhF73 MX22/M0#d Y#11 7.500000 $A=0.0578
Rh_2_F74 MX18/M0#d Y#8 5.000000 $A=0.0867
RjF75 Y#9 Y#13 152.000000 $A=0.0289
RjF76 Y#12 Y#15 152.000000 $A=0.0289
RjF77 Y#6 Y#16 152.000000 $A=0.0289
RjF78 Y#3 Y#17 152.000000 $A=0.0289
RmwF79 MX22/M1#s MX22/M0#d 0.001000 $W=1000000
RmwF80 MX20/M1#s MX20/M0#d 0.001000 $W=1000000
RmwF81 MX19/M1#s MX19/M0#d 0.001000 $W=1000000
RmwF82 MX18/M1#s MX18/M0#d 0.001000 $W=1000000
*
*|NET VSS 1.24941e-15
*|P (VSS X 0 2.4150 0.0050)
*|I (MX22/M0#s MX22/M0 s X 0 2.6395 0.9600)
*|I (MX22/M1#d MX22/M1 d X 0 3.2205 0.9600)
*|I (MX20/M0#s MX20/M0 s X 0 0.3995 0.9600)
*|I (MX20/M1#d MX20/M1 d X 0 0.9805 0.9600)
*|I (MX19/M0#s MX19/M0 s X 0 1.7795 0.9600)
*|I (MX19/M1#d MX19/M1 d X 0 2.3605 0.9600)
*|S (VSS#2 3.3600 0.9600)
*|S (VSS#3 3.4775 0.0000)
*|S (VSS#4 2.5000 0.0000)
*|S (VSS#5 1.8400 0.0000)
*|S (VSS#6 1.8400 0.0000)
*|S (VSS#8 1.6400 0.0000)
*|S (VSS#9 1.1200 0.0000)
*|S (VSS#10 0.1725 0.0000)
*|S (VSS#11 0.2600 0.1245)
*|S (VSS#13 0.2600 0.9600)
*|S (VSS#15 2.5000 0.9600)
*|S (VSS#17 1.6400 0.9600)
*|S (VSS#19 1.1200 0.9600)
*|S (VSS#20 1.8400 0.0000)
RfE42 VSS#2 VSS#3 71.126724 $L=0.96 $W=0.17
RfE43 VSS#3 VSS#4 43.247463 $L=0.9775 $W=0.25
RfE44 VSS#4 VSS#5 33.516811 $L=0.66 $W=0.25
RfE45 VSS#5 VSS#8 9.964811 $L=0.2 $W=0.25
RfE46 VSS#8 VSS#9 26.073622 $L=0.52 $W=0.25
RfE47 VSS#9 VSS#10 43.100529 $L=0.9475 $W=0.25
RfE48 VSS#10 VSS#11 3.709770 $L=0.1245 $W=0.345
RfE49 VSS#11 VSS#13 62.879864 $L=0.835 $W=0.17
RfE50 VSS#4 VSS#15 65.674500 $L=0.96 $W=0.17
RfE51 VSS#8 VSS#17 65.674500 $L=0.96 $W=0.17
RfE52 VSS#9 VSS#19 65.674500 $L=0.96 $W=0.17
ReE53 VSS VSS#20 0.179688 $L=0.575 $W=0.4
RhE54 MX22/M1#d VSS#2 7.500000 $A=0.0578
RhE55 MX20/M0#s VSS#13 7.500000 $A=0.0578
RhE56 MX22/M0#s VSS#15 7.500000 $A=0.0578
RhE57 MX19/M0#s VSS#17 7.500000 $A=0.0578
RhE58 MX20/M1#d VSS#19 7.500000 $A=0.0578
Rh_3_E59 VSS#6 VSS#5 2.142857 $A=0.2023
RjE60 VSS#5 VSS#20 21.714285 $A=0.2023
RmwE61 MX19/M1#d MX22/M0#s 0.001000 $W=1000000
*
*|NET C 6.22151e-16
*|P (C X 0 3.2350 1.8900)
*|I (MX22/M0#g MX22/M0 g X 0 2.7150 0.9600)
*|I (MX22/M1#g MX22/M1 g X 0 3.1450 0.9600)
*|I (MX18/M0#g MX18/M0 g X 0 3.1450 3.0400)
*|I (MX18/M1#g MX18/M1 g X 0 2.7150 3.0400)
*|S (C#15 3.1450 1.8850)
*|S (C#16 2.9750 1.8850)
*|S (C#17 2.7150 1.8850)
*|S (C#18 3.1900 1.7450)
*|S (C#19 3.2200 1.8850)
*|S (C#20 2.9750 1.8850)
*|S (C#21 3.2200 1.8850)
CC1 MX18/M1#g VSS 5.68152e-18
CC2 MX18/M0#g VSS 2.05269e-19
CC3 MX22/M1#g VSS 1.36027e-17
CC4 MX22/M0#g VSS 1.70679e-17
CC5 C#20 VSS 2.26535e-17
CC6 C VSS 3.62727e-17
CC7 C#20 12#10 2.4774e-18
CC8 MX18/M0#g MX18/M0#s 2.04786e-17
CC9 C#20 MX18/M0#s 7.05912e-18
CC10 MX18/M0#g 12#10 3.23293e-18
CC11 MX18/M1#g MX23/M0#s 1.56176e-17
CC12 C MX18/M0#s 1.95933e-17
CC13 MX18/M1#g MX18/M0#s 4.08774e-18
CC14 C 12#10 7.3679e-18
CC15 MX18/M0#g MX23/M0#s 3.41211e-18
CC16 C#20 Y#14 2.67174e-18
CC17 C#20 Y#15 2.67097e-18
CC18 MX22/M1#g Y#15 2.48473e-18
CC19 MX22/M0#g Y#6 2.09557e-18
CC20 MX18/M0#g Y#14 2.07351e-18
CC21 MX22/M1#g Y#12 1.21847e-17
CC22 C#20 MX18/M0#d 9.01551e-18
CC23 C MX18/M0#d 4.33577e-18
CC24 C Y#12 3.82568e-18
CC25 MX22/M0#g Y#12 1.05886e-17
CC26 C#20 Y 2.92047e-17
CC27 C#20 Y#12 1.00036e-17
CC28 C Y#15 2.39063e-17
CC29 C Y#14 1.8163e-17
CC30 MX18/M0#g MX18/M0#d 1.79198e-17
CC31 MX18/M1#g MX18/M0#d 1.56176e-17
CC32 C Y 9.83475e-17
CC33 C#20 VSS#20 2.73178e-18
CC34 MX22/M1#g MX22/M0#s 2.42452e-18
CC35 MX22/M1#g VSS#3 4.77561e-18
CC36 MX22/M0#g VSS#4 6.39591e-18
CC37 MX22/M1#g VSS#20 4.41565e-18
CC38 C VSS#20 8.58031e-18
CC39 MX22/M0#g VSS#20 3.31201e-18
CC40 MX22/M1#g MX22/M1#d 1.5143e-17
CC41 C MX22/M1#d 1.91651e-17
CC42 MX22/M0#g MX22/M1#d 3.21565e-18
CC43 C#20 MX22/M1#d 8.70624e-18
CC44 MX22/M0#g MX22/M0#s 1.15302e-17
CC45 MX18/M0#g VDD#11 3.54546e-18
CC46 MX18/M1#g VDD#11 3.54546e-18
CC47 MX18/M1#g VDD 1.45339e-17
CC48 MX18/M0#g VDD 1.54417e-17
CC49 MX18/M1#g VDD#1 7.17149e-18
CC50 MX18/M0#g VDD#1 7.17149e-18
CC51 C VDD 2.4929e-17
RgC21 MX18/M0#g C#15 367.050140 $L=1.155 $W=0.15
RgC22 C#15 C#16 16.439642 $L=0.185 $W=0.28
RgC23 C#16 C#17 31.932499 $L=0.26 $W=0.28
RgC24 C#17 MX22/M0#g 293.084412 $L=0.925 $W=0.15
RgC25 C#15 C#18 34.205872 $L=0.1395 $W=0.24
RgC26 C#18 MX22/M1#g 252.296875 $L=0.785 $W=0.15
RgC27 C#17 MX18/M1#g 366.991089 $L=1.155 $W=0.15
RfC28 C#19 C#20 18.447058 $L=0.245 $W=0.17
ReC29 C#21 C 0.002404 $L=0.005 $W=0.26
RjC30 C#19 C#21 152.000000 $A=0.0289
RiC31 C#16 C#20 7.500000 $A=0.0578
*
*|NET VDD 9.34723e-16
*|P (VDD X 0 2.4150 4.1450)
*|I (MX21/M0#s MX21/M0 s X 0 0.9805 3.0400)
*|I (MX21/M1#d MX21/M1 d X 0 0.3995 3.0400)
*|S (VDD#1 1.8400 4.1400)
*|S (VDD#2 1.8400 4.1400)
*|S (VDD#4 1.1200 4.1400)
*|S (VDD#5 0.1725 4.1400)
*|S (VDD#6 0.2600 4.0150)
*|S (VDD#8 0.2600 3.0400)
*|S (VDD#10 1.1200 3.0400)
*|S (VDD#11 1.8400 4.1400)
CD1 MX21/M1#d VSS 6.86211e-18
CD2 MX21/M0#s VSS 3.27988e-18
CD3 VDD#11 VSS 2.85e-18
CD4 VDD#5 VSS 3.27267e-18
CD5 VDD#4 VSS 1.50696e-18
CD6 VDD#1 VSS 3.59996e-18
CD7 VDD VSS 2.69684e-18
CD8 VDD 12#11 2.94604e-18
CD9 VDD#11 MX18/M0#s 5.86005e-18
CD10 VDD#1 MX18/M0#s 1.04856e-17
CD11 VDD 12#10 2.73793e-17
CD12 VDD#1 12#10 8.94579e-18
CD13 VDD#11 12#10 3.45111e-17
CD14 VDD#1 MX23/M1#d 7.92428e-18
CD15 VDD#1 12#12 8.25166e-18
CD16 MX21/M0#s MX23/M1#d 4.21477e-17
CD17 MX21/M0#s 12#12 6.93256e-18
CD18 VDD#11 12#11 4.54277e-17
CD19 VDD#1 MX23/M0#s 9.40549e-18
CD20 VDD#11 12#12 3.24015e-17
CD21 VDD#11 MX23/M1#d 6.24137e-18
CD22 VDD#11 MX23/M0#s 6.40626e-18
CD23 VDD#1 12#11 1.11403e-17
CD24 VDD MX18/M0#s 3.31346e-17
CD25 VDD#4 11#8 3.54795e-18
CD26 VDD#5 11 3.17244e-18
CD27 VDD#4 11 2.35308e-18
CD28 VDD#1 11#7 1.6675e-18
CD29 VDD#11 MX23/M0#d 5.67428e-18
CD30 VDD#1 MX23/M0#d 9.11092e-18
CD31 VDD#11 11#7 4.55247e-18
CD32 MX21/M1#d 11#8 8.2566e-18
CD33 MX21/M1#d 11 6.19958e-17
CD34 VDD 11#8 2.32808e-17
CD35 VDD#11 11#8 2.49587e-17
CD36 VDD 11#7 1.28287e-17
CD37 VDD#11 11 6.83529e-18
CD38 MX21/M0#s 11#8 3.59092e-17
CD39 MX21/M0#s 11 5.94487e-17
CD40 VDD Y#16 4.05985e-18
CD41 VDD Y#17 3.6325e-18
CD42 MX21/M0#s Y#17 2.96269e-18
CD43 VDD#1 Y#16 2.01434e-18
CD44 VDD#4 Y#17 1.86287e-18
CD45 VDD#1 MX18/M0#d 9.89645e-18
CD46 VDD#11 MX18/M0#d 5.84114e-18
CD47 VDD Y 7.58813e-18
RfD32 VDD#1 VDD#4 36.588810 $L=0.72 $W=0.25
RfD33 VDD#4 VDD#5 43.100529 $L=0.9475 $W=0.25
RfD34 VDD#5 VDD#6 3.709770 $L=0.1245 $W=0.345
RfD35 VDD#6 VDD#8 73.421043 $L=0.975 $W=0.17
RfD36 VDD#4 VDD#10 76.215675 $L=1.1 $W=0.17
ReD37 VDD VDD#11 0.179688 $L=0.575 $W=0.4
Rh_1_D38 VDD#2 VDD#1 2.142857 $A=0.2023
Rh_2_D39 MX21/M1#d VDD#8 5.000000 $A=0.0867
Rh_2_D40 MX21/M0#s VDD#10 5.000000 $A=0.0867
RjD41 VDD#1 VDD#11 21.714285 $A=0.2023
*
*Instance Section
*
MX22/M0	MX22/M0#d	MX22/M0#g	MX22/M0#s	VSS	nfet_01v8
+ L=1.5e-07	W=8.4e-07
MX22/M1	MX22/M1#d	MX22/M1#g	MX22/M1#s	VSS	nfet_01v8
+ L=1.5e-07	W=8.4e-07
MX20/M0	MX20/M0#d	MX20/M0#g	MX20/M0#s	VSS	nfet_01v8
+ L=1.5e-07	W=8.4e-07
MX20/M1	MX20/M1#d	MX20/M1#g	MX20/M1#s	VSS	nfet_01v8
+ L=1.5e-07	W=8.4e-07
MX19/M0	MX19/M0#d	MX19/M0#g	MX19/M0#s	VSS	nfet_01v8
+ L=1.5e-07	W=8.4e-07
MX19/M1	MX19/M1#d	MX19/M1#g	MX19/M1#s	VSS	nfet_01v8
+ L=1.5e-07	W=8.4e-07
MX23/M0	MX23/M0#d	MX23/M0#g	MX23/M0#s	VDD	pfet_01v8_hvt
+ L=1.5e-07	W=1.24e-06
MX23/M1	MX23/M1#d	MX23/M1#g	MX23/M1#s	VDD	pfet_01v8_hvt
+ L=1.5e-07	W=1.24e-06
MX21/M0	MX21/M0#d	MX21/M0#g	MX21/M0#s	VDD	pfet_01v8_hvt
+ L=1.5e-07	W=1.24e-06
MX21/M1	MX21/M1#d	MX21/M1#g	MX21/M1#s	VDD	pfet_01v8_hvt
+ L=1.5e-07	W=1.24e-06
MX18/M0	MX18/M0#d	MX18/M0#g	MX18/M0#s	VDD	pfet_01v8_hvt
+ L=1.5e-07	W=1.24e-06
MX18/M1	MX18/M1#d	MX18/M1#g	MX18/M1#s	VDD	pfet_01v8_hvt
+ L=1.5e-07	W=1.24e-06
.ENDS
