*
*|DSPF 1.5
*
*|DATE "Fri Feb 28 12:42:52 2025"
*|VENDOR "Cadence Design Systems"
*|PROGRAM "Cadence Quantus Extraction"
*|VERSION "22.1.0-p089 Linux 64 bit - (Thu Jan 19 11:47:08 PST 2023)"
*|DESIGN "NOR4X4_LP"
*|DIVIDER /
*|DELIMITER #
*|DeviceFingerDelim "@"
*|BUSBIT []
*|GLOBAL_TEMPERATURE 25
*|OPERATING_TEMPERATURE 25
** QRC_TECH_DIR /vols/wfo_devel/projects/reference_SKY130/tech/sky130_release_0.0.4/quantus/extraction/typical 
** HIERARCHICAL_SPLIT_PINS_DELIMITER '%'
** caps2d version: 10
*
.SUBCKT  NOR4X4_LP A B C D VDD VSS Y
*
*Net Section
*
*|GROUND_NET VSS
*
*|NET A 5.57525e-16
*|P (A X 0 0.4750 1.8000)
*|I (MX26/M0#g MX26/M0 g X 0 0.4750 0.9700)
*|I (MX26/M1#g MX26/M1 g X 0 0.9050 0.9700)
*|I (MX28/M0#g MX28/M0 g X 0 0.4750 3.0400)
*|I (MX28/M1#g MX28/M1 g X 0 0.9050 3.0400)
*|S (A#15 0.9050 1.6650)
*|S (A#16 0.6900 1.6650)
*|S (A#17 0.4650 1.6650)
*|S (A#18 0.4650 1.5000)
*|S (A#19 0.9150 1.5000)
*|S (A#20 0.4650 1.8295)
*|S (A#21 0.6900 1.6650)
*|S (A#22 0.4600 1.6650)
*|S (A#23 0.4600 1.6650)
CA1 MX28/M1#g VSS 3.17604e-18
CA2 MX26/M1#g VSS 1.32547e-17
CA3 MX26/M0#g VSS 1.44649e-17
CA4 A#23 VSS 2.22159e-17
CA5 A#21 VSS 3.26489e-17
CA6 A VSS 2.00653e-17
CA7 MX28/M0#g 14#12 2.18268e-18
CA8 A#21 14#11 2.13662e-18
CA9 A#21 14#12 2.03863e-18
CA10 A#21 MX28/M0#s 3.06364e-18
CA11 MX28/M1#g MX28/M0#s 3.76561e-18
CA12 MX28/M1#g 14#11 9.05705e-18
CA13 MX28/M0#g MX28/M0#s 2.04955e-17
CA14 A 14#12 8.5171e-18
CA15 MX28/M0#g MX31/M0#s 4.00239e-18
CA16 MX28/M1#g MX31/M0#s 1.55802e-17
CA17 A MX28/M0#s 1.39547e-17
CA18 MX26/M1#g Y#6 2.09557e-18
CA19 A#23 Y#21 8.81718e-18
CA20 A#23 MX26/M0#d 3.97088e-18
CA21 MX26/M1#g Y#3 1.05618e-17
CA22 A#23 Y#3 8.27238e-18
CA23 MX26/M0#g Y#21 2.90615e-18
CA24 MX26/M1#g Y#21 3.17352e-18
CA25 A#21 Y#3 2.53386e-17
CA26 A#21 Y#21 1.03755e-17
CA27 MX26/M0#g Y#3 1.20495e-17
CA28 A#21 VSS#23 2.74634e-18
CA29 A#23 VSS#11 1.71324e-18
CA30 MX26/M1#g VSS#10 6.26364e-18
CA31 MX26/M0#g MX26/M0#s 1.51243e-17
CA32 MX26/M0#g VSS#11 4.67685e-18
CA33 A#23 VSS#23 4.58608e-18
CA34 MX26/M0#g VSS#23 3.88028e-18
CA35 MX26/M1#g MX29/M0#s 1.15034e-17
CA36 A#21 MX26/M0#s 1.49272e-17
CA37 MX26/M0#g MX29/M0#s 2.84741e-18
CA38 A#23 MX29/M0#s 3.17077e-18
CA39 MX26/M1#g VSS#23 3.28533e-18
CA40 A#23 MX26/M0#s 2.04932e-17
CA41 MX26/M1#g MX26/M0#s 2.89776e-18
CA42 MX28/M1#g VDD#4 2.19658e-18
CA43 MX28/M0#g VDD 1.48226e-17
CA44 MX28/M1#g MX28/M0#d 1.65218e-17
CA45 MX28/M0#g VDD#8 3.54546e-18
CA46 MX28/M1#g VDD#8 3.54546e-18
CA47 A#21 MX28/M0#d 7.42799e-18
CA48 A MX28/M0#d 6.42718e-18
CA49 MX28/M0#g VDD#4 5.35471e-18
CA50 MX28/M1#g VDD 1.17474e-17
CA51 MX28/M0#g MX28/M0#d 1.92203e-17
CA52 A VDD 2.28484e-17
CA53 A#23 B#23 1.38628e-17
CA54 A#21 B#23 1.43028e-17
CA55 A B#23 6.74386e-18
CA56 A B#21 6.70067e-18
CA57 A B 2.59597e-17
RgA1 MX28/M1#g A#15 435.658752 $L=1.375 $W=0.15
RgA2 A#15 A#16 20.521515 $L=0.218 $W=0.33
RgA3 A#16 A#17 20.521515 $L=0.218 $W=0.33
RgA4 A#17 A#18 46.128941 $L=0.1645 $W=0.17
RgA5 A#18 MX26/M0#g 170.377548 $L=0.53 $W=0.15
RgA6 A#15 A#19 46.128941 $L=0.1645 $W=0.17
RgA7 A#19 MX26/M1#g 170.377548 $L=0.53 $W=0.15
RgA8 A#17 A#20 46.131256 $L=0.1645 $W=0.17
RgA9 A#20 MX28/M0#g 388.884216 $L=1.21 $W=0.15
RfA10 A#21 A#22 17.317646 $L=0.23 $W=0.17
ReA11 A A#23 0.064904 $L=0.135 $W=0.26
RjA12 A#22 A#23 152.000000 $A=0.0289
RiA13 A#16 A#21 7.500000 $A=0.0578
*
*|NET 15 8.2083e-16
*|I (MX31/M0#d MX31/M0 d X 0 1.4105 3.0400)
*|I (MX31/M1#s MX31/M1 s X 0 1.6895 3.0400)
*|I (MX25/M0#d MX25/M0 d X 0 2.7905 3.0400)
*|I (MX25/M1#s MX25/M1 s X 0 3.0695 3.0400)
*|S (15 1.5500 3.0400)
*|S (15#2 1.5500 3.0400)
*|S (15#3 1.5500 3.0150)
*|S (15#5 2.9300 3.0400)
*|S (15#6 2.9300 3.0150)
*|S (15#7 2.9300 3.0150)
*|S (15#8 1.5500 3.0150)
CI1 MX25/M0#d VSS 4.73261e-18
CI2 15#8 VSS 9.9175e-18
CI3 15#7 VSS 8.8431e-18
CI4 15 VSS 6.02436e-18
CI5 15#7 16#12 8.3436e-17
CI6 15#7 MX25/M0#s 2.70055e-17
CI7 MX25/M0#d MX32/M0#s 5.61635e-17
CI8 15#7 MX32/M0#s 5.99128e-18
CI9 MX25/M0#d MX25/M0#s 5.48363e-17
CI10 15#7 16#11 1.83148e-17
CI11 MX25/M0#d 16#11 1.0843e-17
CI12 MX25/M0#d 16#12 1.09125e-17
CI13 15#7 MX27/M0#s 2.97195e-18
CI14 15#8 MX29/M1#d 2.90238e-18
CI15 15#8 VSS#9 1.59225e-18
RfI123 15#2 15#3 1.882353 $L=0.025 $W=0.17
RfI124 15#5 15#6 1.882353 $L=0.025 $W=0.17
ReI125 15#7 15#8 0.750000 $L=1.38 $W=0.23
Rh_2_I126 15 15#2 5.000000 $A=0.0867
Rh_2_I127 MX25/M0#d 15#5 5.000000 $A=0.0867
RjI128 15#6 15#7 152.000000 $A=0.0289
RjI129 15#3 15#8 152.000000 $A=0.0289
RmwI130 MX31/M0#d 15 0.001000 $W=1000000
RmwI131 MX31/M1#s 15 0.001000 $W=1000000
RmwI132 MX25/M1#s MX25/M0#d 0.001000 $W=1000000
*
*|NET B 5.49491e-16
*|P (B X 0 1.3950 2.0100)
*|I (MX29/M0#g MX29/M0 g X 0 1.3350 0.9700)
*|I (MX29/M1#g MX29/M1 g X 0 1.7650 0.9700)
*|I (MX31/M0#g MX31/M0 g X 0 1.3350 3.0400)
*|I (MX31/M1#g MX31/M1 g X 0 1.7650 3.0400)
*|S (B#15 1.7650 1.8750)
*|S (B#16 1.5500 1.8750)
*|S (B#17 1.3250 1.8750)
*|S (B#18 1.3250 1.7100)
*|S (B#19 1.7750 1.7100)
*|S (B#20 1.3250 2.0395)
*|S (B#21 1.5500 1.8750)
*|S (B#22 1.3800 1.8750)
*|S (B#23 1.3800 1.8750)
CB1 MX31/M1#g VSS 6.04408e-18
CB2 MX31/M0#g VSS 4.10918e-19
CB3 MX29/M1#g VSS 1.42727e-17
CB4 MX29/M0#g VSS 1.50789e-17
CB5 B#23 VSS 1.48594e-17
CB6 B#21 VSS 2.57297e-17
CB7 B VSS 9.92584e-18
CB8 B 15#8 9.01005e-18
CB9 B#21 15#8 7.20158e-18
CB10 MX31/M1#g 15 1.63832e-17
CB11 B#21 15 8.01589e-18
CB12 MX31/M0#g 15#8 3.0815e-18
CB13 MX31/M1#g 15#8 3.70415e-18
CB14 MX31/M0#g 15 1.56062e-17
CB15 B 15 1.925e-17
CB16 B#21 14#11 2.33723e-18
CB17 MX31/M1#g 14#10 1.71094e-18
CB18 B MX31/M1#d 3.79203e-18
CB19 MX31/M0#g MX31/M0#s 1.55933e-17
CB20 B MX31/M0#s 1.39955e-17
CB21 MX31/M1#g MX31/M0#s 3.09837e-18
CB22 MX31/M0#g 14#11 2.85332e-18
CB23 B 14#11 9.78566e-18
CB24 MX31/M0#g MX31/M1#d 3.07805e-18
CB25 MX31/M1#g MX31/M1#d 1.79687e-17
CB26 MX29/M0#g Y#20 2.4303e-18
CB27 MX29/M0#g Y#3 2.09557e-18
CB28 B#21 Y#20 1.15143e-17
CB29 B#21 Y#6 1.06808e-17
CB30 MX29/M1#g Y#6 1.11028e-17
CB31 B#23 Y#6 7.60553e-18
CB32 MX29/M1#g Y#20 3.3279e-18
CB33 B#23 Y#20 2.27349e-17
CB34 MX29/M0#g Y#6 1.05618e-17
CB35 MX29/M1#g MX29/M0#s 2.42645e-18
CB36 MX29/M0#g MX29/M1#d 2.29519e-18
CB37 B#21 VSS#23 1.88643e-18
CB38 MX29/M1#g VSS#9 4.02666e-18
CB39 MX29/M1#g MX29/M1#d 1.32695e-17
CB40 MX29/M0#g VSS#10 6.26364e-18
CB41 MX29/M0#g MX29/M0#s 1.15034e-17
CB42 MX29/M0#g VSS#23 3.28533e-18
CB43 MX29/M1#g VSS#23 3.28533e-18
CB44 MX29/M1#g MX27/M0#s 3.6027e-18
CB45 MX31/M1#g VDD 1.2661e-17
CB46 MX31/M0#g VDD#8 3.54546e-18
CB47 MX31/M0#g VDD 1.67447e-17
CB48 MX31/M1#g VDD#8 3.54546e-18
CB49 B MX28/M0#d 3.46505e-18
CB50 MX31/M1#g VDD#1 5.11496e-18
CB51 MX31/M0#g VDD#4 7.17149e-18
CB52 B VDD 1.05869e-17
CB53 MX31/M0#g MX28/M0#d 3.38882e-18
CB54 B C 1.46621e-17
CB55 B#23 C 3.31834e-18
CB56 B#23 C#23 8.85242e-18
CB57 B#23 C#21 4.60522e-18
CB58 B#21 C 7.57332e-18
RgB14 MX31/M1#g B#15 368.178741 $L=1.165 $W=0.15
RgB15 B#15 B#16 20.521515 $L=0.218 $W=0.33
RgB16 B#16 B#17 20.521515 $L=0.218 $W=0.33
RgB17 B#17 B#18 46.128941 $L=0.1645 $W=0.17
RgB18 B#18 MX29/M0#g 237.857559 $L=0.74 $W=0.15
RgB19 B#15 B#19 46.128941 $L=0.1645 $W=0.17
RgB20 B#19 MX29/M1#g 237.857559 $L=0.74 $W=0.15
RgB21 B#17 B#20 46.131256 $L=0.1645 $W=0.17
RgB22 B#20 MX31/M0#g 321.404205 $L=1 $W=0.15
RfB23 B#21 B#22 12.800000 $L=0.17 $W=0.17
ReB24 B B#23 0.064904 $L=0.135 $W=0.26
RjB25 B#22 B#23 152.000000 $A=0.0289
RiB26 B#16 B#21 7.500000 $A=0.0578
*
*|NET 14 9.36647e-16
*|I (MX31/M0#s MX31/M0 s X 0 1.2595 3.0400)
*|I (MX31/M1#d MX31/M1 d X 0 1.8405 3.0400)
*|I (MX28/M0#s MX28/M0 s X 0 0.3995 3.0400)
*|I (MX28/M1#d MX28/M1 d X 0 0.9805 3.0400)
*|S (14 0.2600 3.3850)
*|S (14#3 0.2600 3.0400)
*|S (14#4 1.1200 3.3850)
*|S (14#6 1.1200 3.0400)
*|S (14#7 1.9800 3.3850)
*|S (14#9 1.9800 3.0400)
*|S (14#10 1.9800 3.3850)
*|S (14#11 1.1200 3.3850)
*|S (14#12 0.2600 3.3850)
CH1 MX28/M0#s VSS 7.31556e-18
CH2 MX31/M1#d VSS 5.82656e-18
CH3 MX31/M0#s VSS 4.74217e-18
CH4 14#12 VSS 2.07873e-18
CH5 14#11 VSS 2.19141e-18
CH6 14#10 VSS 6.00947e-18
CH7 MX31/M1#d 16#12 3.51853e-18
CH8 14#10 16#12 2.18093e-17
CH9 MX31/M1#d MX25/M0#s 4.08205e-17
CH10 MX31/M1#d 15 5.57347e-17
CH11 MX31/M0#s 15#8 7.13799e-18
CH12 MX31/M1#d 15#8 2.70431e-17
CH13 14#11 15 1.07608e-17
CH14 14#10 15 1.08639e-17
CH15 MX31/M0#s 15 5.64508e-17
CH16 14#10 15#8 8.33073e-17
CH17 14#11 15#8 1.85483e-17
CH18 MX31/M1#d MX29/M1#d 3.63301e-18
CH19 MX31/M0#s MX29/M0#s 3.63301e-18
CH20 MX28/M0#s MX26/M0#s 2.51886e-18
CH21 14#11 MX29/M0#s 2.27077e-18
RfH111 14 14#3 25.976471 $L=0.345 $W=0.17
RfH112 14#4 14#6 25.976471 $L=0.345 $W=0.17
RfH113 14#7 14#9 25.976471 $L=0.345 $W=0.17
ReH114 14#10 14#11 0.467391 $L=0.86 $W=0.23
ReH115 14#11 14#12 0.467391 $L=0.86 $W=0.23
Rh_2_H116 MX28/M0#s 14#3 5.000000 $A=0.0867
Rh_2_H117 MX31/M0#s 14#6 5.000000 $A=0.0867
Rh_2_H118 MX31/M1#d 14#9 5.000000 $A=0.0867
RjH119 14#7 14#10 152.000000 $A=0.0289
RjH120 14#4 14#11 152.000000 $A=0.0289
RjH121 14 14#12 152.000000 $A=0.0289
RmwH122 MX28/M1#d MX31/M0#s 0.001000 $W=1000000
*
*|NET Y 1.74245e-15
*|P (Y X 0 3.6950 1.6450)
*|I (MX30/M0#d MX30/M0 d X 0 3.6505 0.9700)
*|I (MX30/M1#s MX30/M1 s X 0 3.9295 0.9700)
*|I (MX29/M0#d MX29/M0 d X 0 1.4105 0.9700)
*|I (MX29/M1#s MX29/M1 s X 0 1.6895 0.9700)
*|I (MX27/M0#d MX27/M0 d X 0 2.7905 0.9700)
*|I (MX27/M1#s MX27/M1 s X 0 3.0695 0.9700)
*|I (MX26/M0#d MX26/M0 d X 0 0.5505 0.9700)
*|I (MX26/M1#s MX26/M1 s X 0 0.8295 0.9700)
*|I (MX32/M0#d MX32/M0 d X 0 3.6505 3.0400)
*|I (MX32/M1#s MX32/M1 s X 0 3.9295 3.0400)
*|S (Y#2 0.6900 0.9700)
*|S (Y#3 0.6900 0.7550)
*|S (Y#5 1.5500 0.9700)
*|S (Y#6 1.5500 0.7550)
*|S (Y#8 2.9300 0.9700)
*|S (Y#9 2.9300 0.7550)
*|S (Y#11 3.7900 3.0400)
*|S (Y#12 3.7900 2.9750)
*|S (Y#14 3.7900 0.9700)
*|S (Y#15 3.7900 0.7550)
*|S (Y#16 3.7900 2.9750)
*|S (Y#17 3.7275 2.8300)
*|S (Y#18 3.7900 0.7550)
*|S (Y#19 2.9300 0.7550)
*|S (Y#20 1.5500 0.7550)
*|S (Y#21 0.6900 0.7550)
CG1 MX32/M0#d VSS 1.65042e-18
CG2 MX27/M0#d VSS 2.03097e-19
CG3 Y#21 VSS 1.61846e-17
CG4 Y#20 VSS 1.9129e-17
CG5 Y#19 VSS 1.44072e-17
CG6 Y#18 VSS 7.32794e-18
CG7 Y#17 VSS 7.93704e-18
CG8 Y#3 VSS 1.79122e-18
CG9 Y#6 VSS 1.85114e-18
CG10 Y#9 VSS 2.09243e-18
CG11 Y#15 VSS 2.72602e-18
CG12 Y#12 VSS 3.39932e-19
CG13 Y VSS 1.04417e-17
CG14 Y#19 MX25/M0#s 3.89414e-18
CG15 Y#18 MX32/M0#s 2.02389e-18
CG16 Y#17 16#11 3.22058e-17
CG17 Y#12 MX32/M1#d 5.53581e-17
CG18 Y#12 MX32/M0#s 5.40902e-17
CG19 Y#12 16#10 1.00964e-17
CG20 Y#17 16#10 2.29089e-17
CG21 Y#17 MX32/M1#d 1.18341e-17
CG22 Y#12 16#11 9.8112e-18
CG23 Y#17 MX32/M0#s 1.76281e-17
CG24 Y#12 15#7 1.88767e-18
CG25 Y#19 MX25/M0#d 1.63262e-18
CG26 Y#6 15#8 1.46287e-18
CG27 Y#17 15#7 1.61548e-17
CG28 Y#17 MX25/M0#d 5.57571e-18
CG29 Y#20 MX31/M1#d 3.89414e-18
CG30 Y#17 MX31/M1#d 1.68516e-18
CG31 Y#19 VSS#6 7.33501e-18
CG32 Y#15 VSS#23 5.56466e-18
CG33 Y#6 VSS#23 5.56466e-18
CG34 Y#3 VSS#23 5.40201e-18
CG35 Y#9 VSS#23 5.40201e-18
CG36 Y#18 VSS#4 5.39819e-18
CG37 Y#20 VSS#9 5.34044e-18
CG38 Y#20 VSS#10 5.27748e-18
CG39 Y#21 VSS#10 5.26494e-18
CG40 Y#19 VSS#4 5.15433e-18
CG41 Y MX30/M0#s 4.06141e-18
CG42 Y#21 VSS#11 3.21524e-18
CG43 Y#18 VSS#3 2.79669e-18
CG44 Y#3 VSS#11 2.75288e-18
CG45 Y#6 VSS#10 2.75288e-18
CG46 Y#15 VSS#4 2.75288e-18
CG47 Y#9 VSS#6 2.75288e-18
CG48 Y#3 VSS#10 2.72602e-18
CG49 Y#6 VSS#9 2.72602e-18
CG50 Y#9 VSS#4 2.72602e-18
CG51 Y#19 MX27/M0#s 3.41342e-17
CG52 Y#3 MX29/M0#s 3.83621e-17
CG53 Y#9 MX30/M0#s 3.83511e-17
CG54 Y#20 VSS#23 6.41572e-17
CG55 Y#20 MX29/M1#d 3.41914e-17
CG56 Y#18 MX30/M1#d 1.35732e-17
CG57 Y#6 MX29/M0#s 3.91918e-17
CG58 Y#15 MX30/M0#s 3.59263e-17
CG59 Y#19 VSS#23 6.12309e-17
CG60 Y#3 MX26/M0#s 3.95812e-17
CG61 Y#21 MX29/M0#s 1.62077e-17
CG62 Y#19 MX30/M0#s 1.17353e-17
CG63 Y#20 MX29/M0#s 1.59973e-17
CG64 Y#6 MX29/M1#d 3.93452e-17
CG65 Y#18 MX30/M0#s 2.61849e-17
CG66 Y#18 VSS#23 4.0255e-17
CG67 Y#21 MX26/M0#s 9.5955e-18
CG68 Y#21 VSS#23 3.73003e-17
CG69 Y#15 MX30/M1#d 4.07319e-17
CG70 Y#9 MX27/M0#s 3.69577e-17
RfG85 Y#2 Y#3 16.188236 $L=0.215 $W=0.17
RfG86 Y#5 Y#6 16.188236 $L=0.215 $W=0.17
RfG87 Y#8 Y#9 16.188236 $L=0.215 $W=0.17
RfG88 Y#11 Y#12 4.894118 $L=0.065 $W=0.17
RfG89 Y#14 Y#15 16.188236 $L=0.215 $W=0.17
ReG90 Y#16 Y#17 0.058474 $L=0.1445 $W=0.355
ReG91 Y#17 Y 0.511537 $L=1.185 $W=0.26
ReG92 Y Y#18 0.409229 $L=0.89 $W=0.26
ReG93 Y#18 Y#19 0.370690 $L=0.86 $W=0.29
ReG94 Y#19 Y#20 0.594828 $L=1.38 $W=0.29
ReG95 Y#20 Y#21 0.370690 $L=0.86 $W=0.29
RhG96 MX26/M0#d Y#2 7.500000 $A=0.0578
RhG97 MX29/M0#d Y#5 7.500000 $A=0.0578
RhG98 MX27/M0#d Y#8 7.500000 $A=0.0578
RhG99 MX30/M0#d Y#14 7.500000 $A=0.0578
Rh_2_G100 MX32/M0#d Y#11 5.000000 $A=0.0867
RjG101 Y#12 Y#16 152.000000 $A=0.0289
RjG102 Y#15 Y#18 152.000000 $A=0.0289
RjG103 Y#9 Y#19 152.000000 $A=0.0289
RjG104 Y#6 Y#20 152.000000 $A=0.0289
RjG105 Y#3 Y#21 152.000000 $A=0.0289
RmwG106 MX30/M1#s MX30/M0#d 0.001000 $W=1000000
RmwG107 MX29/M1#s MX29/M0#d 0.001000 $W=1000000
RmwG108 MX27/M1#s MX27/M0#d 0.001000 $W=1000000
RmwG109 MX26/M1#s MX26/M0#d 0.001000 $W=1000000
RmwG110 MX32/M1#s MX32/M0#d 0.001000 $W=1000000
*
*|NET VDD 1.0892e-15
*|P (VDD X 0 2.4150 4.1450)
*|I (MX28/M0#d MX28/M0 d X 0 0.5505 3.0400)
*|I (MX28/M1#s MX28/M1 s X 0 0.8295 3.0400)
*|S (VDD#1 2.3000 4.1400)
*|S (VDD#2 2.3000 4.1400)
*|S (VDD#4 0.6900 4.1400)
*|S (VDD#5 0.0000 4.1400)
*|S (VDD#7 0.6900 3.0400)
*|S (VDD#8 2.3000 4.1400)
CE1 VDD#8 VSS 6.11821e-18
CE2 VDD#4 VSS 5.54877e-18
CE3 VDD#1 VSS 7.9416e-18
CE4 VDD VSS 6.21326e-18
CE5 VDD#8 16#10 3.45111e-17
CE6 VDD#1 16#12 8.25166e-18
CE7 VDD#1 MX32/M0#s 8.44321e-18
CE8 VDD#8 MX32/M0#s 6.40626e-18
CE9 VDD#1 MX32/M1#d 1.04856e-17
CE10 VDD#8 16#12 3.24015e-17
CE11 VDD MX32/M1#d 3.00664e-17
CE12 VDD#8 MX25/M0#s 6.40626e-18
CE13 VDD#1 16#10 8.93089e-18
CE14 VDD#8 16#11 4.58784e-17
CE15 VDD 16#10 2.2969e-17
CE16 VDD#1 MX25/M0#s 8.81634e-18
CE17 VDD#1 16#11 1.16361e-17
CE18 VDD#8 MX32/M1#d 5.86005e-18
CE19 MX28/M0#d 15#8 3.23794e-18
CE20 VDD#4 15 2.70596e-18
CE21 VDD#1 15#7 2.58593e-18
CE22 VDD 15#8 1.13613e-17
CE23 VDD 15#7 1.0136e-17
CE24 VDD#8 MX25/M0#d 6.22124e-18
CE25 VDD#8 15#7 4.55247e-18
CE26 VDD#8 15#8 4.5924e-18
CE27 VDD#1 MX25/M0#d 9.40549e-18
CE28 VDD#8 15 5.82224e-18
CE29 VDD#1 15 6.6657e-18
CE30 VDD 14#11 3.85536e-18
CE31 VDD#5 14#12 3.72014e-18
CE32 VDD#4 14#12 3.66444e-18
CE33 VDD#1 14#10 8.24215e-18
CE34 VDD#8 MX31/M0#s 6.40626e-18
CE35 VDD#4 MX31/M0#s 6.74598e-18
CE36 MX28/M0#d 14#12 1.58881e-17
CE37 VDD#4 14#11 9.04566e-18
CE38 MX28/M0#d MX28/M0#s 6.1013e-17
CE39 VDD#8 MX28/M0#s 6.32655e-18
CE40 MX28/M0#d MX31/M0#s 5.84169e-17
CE41 VDD 14#12 2.87238e-17
CE42 VDD#8 MX31/M1#d 6.40626e-18
CE43 VDD#8 14#12 3.48252e-17
CE44 VDD#8 14#11 4.5421e-17
CE45 VDD#5 MX28/M0#s 6.69726e-18
CE46 VDD#8 14#10 3.23504e-17
CE47 VDD#1 MX31/M1#d 8.61996e-18
CE48 VDD MX28/M0#s 3.31346e-17
CE49 MX28/M0#d 14#11 1.63426e-17
CE50 VDD Y 4.45561e-18
CE51 VDD Y#20 4.12091e-18
CE52 VDD Y#19 4.09038e-18
CE53 VDD#1 Y#19 2.79672e-18
CE54 MX28/M0#d Y#21 2.58707e-18
CE55 VDD#8 Y#12 5.84114e-18
CE56 VDD Y#17 6.02615e-18
CE57 VDD#1 Y#12 1.04856e-17
RfE53 VDD#1 VDD#4 82.156807 $L=1.61 $W=0.25
RfE54 VDD#4 VDD#5 35.052811 $L=0.69 $W=0.25
RfE55 VDD#4 VDD#7 76.215675 $L=1.1 $W=0.17
ReE56 VDD VDD#8 0.035937 $L=0.115 $W=0.4
Rh_1_E57 VDD#2 VDD#1 1.666667 $A=0.2601
Rh_2_E58 MX28/M0#d VDD#7 5.000000 $A=0.0867
RjE59 VDD#1 VDD#8 16.888889 $A=0.2601
RmwE60 MX28/M1#s MX28/M0#d 0.001000 $W=1000000
*
*|NET D 6.53812e-16
*|P (D X 0 4.1550 2.0350)
*|I (MX30/M0#g MX30/M0 g X 0 3.5750 0.9700)
*|I (MX30/M1#g MX30/M1 g X 0 4.0050 0.9700)
*|I (MX32/M0#g MX32/M0 g X 0 3.5750 3.0400)
*|I (MX32/M1#g MX32/M1 g X 0 4.0050 3.0400)
*|S (D#15 4.0050 1.8750)
*|S (D#16 3.7900 1.8750)
*|S (D#17 3.5650 1.8750)
*|S (D#18 3.5650 1.7100)
*|S (D#19 4.0150 1.7100)
*|S (D#20 3.5650 2.0395)
*|S (D#21 4.1400 1.8750)
*|S (D#22 3.7900 1.8750)
*|S (D#23 4.1400 1.8750)
CD1 MX32/M1#g VSS 2.68627e-18
CD2 MX32/M0#g VSS 4.80759e-18
CD3 MX30/M1#g VSS 1.40484e-17
CD4 MX30/M0#g VSS 1.54386e-17
CD5 D#22 VSS 2.52506e-17
CD6 D#21 VSS 2.0443e-17
CD7 D VSS 3.26696e-17
CD8 D#21 16#10 2.84962e-18
CD9 D#22 16#11 2.0912e-18
CD10 D#22 16#10 1.66894e-18
CD11 MX32/M0#g MX32/M1#d 4.08774e-18
CD12 D MX32/M1#d 2.91051e-17
CD13 D 16#10 8.3926e-18
CD14 D#21 MX32/M1#d 8.75849e-18
CD15 MX32/M1#g MX32/M0#s 3.38568e-18
CD16 MX32/M0#g MX32/M0#s 1.55802e-17
CD17 MX32/M1#g MX32/M1#d 2.04515e-17
CD18 MX32/M1#g 16#10 3.56064e-18
CD19 MX30/M1#g Y#18 2.48473e-18
CD20 D#22 Y#17 2.18979e-18
CD21 MX30/M0#g Y#9 2.09557e-18
CD22 MX32/M0#g Y#12 1.56193e-17
CD23 MX30/M1#g Y#15 1.21847e-17
CD24 D#22 Y#12 8.6883e-18
CD25 MX30/M0#g Y#18 3.66434e-18
CD26 D Y#12 5.3223e-18
CD27 D Y#17 4.70869e-17
CD28 D#22 Y#15 1.04225e-17
CD29 D#22 Y#18 4.71703e-18
CD30 MX32/M1#g Y#12 1.79198e-17
CD31 MX32/M0#g Y#17 5.57824e-18
CD32 D#22 Y 3.17216e-17
CD33 D Y 8.93259e-17
CD34 MX30/M0#g Y#15 1.05891e-17
CD35 MX30/M0#g MX30/M1#d 3.21565e-18
CD36 MX30/M0#g VSS#23 2.84977e-18
CD37 MX30/M1#g MX30/M0#s 2.41659e-18
CD38 D#22 VSS#23 2.2481e-18
CD39 D#21 VSS#23 2.22016e-18
CD40 MX30/M1#g VSS#23 5.32818e-18
CD41 MX30/M1#g VSS#3 4.65597e-18
CD42 D MX30/M1#d 1.19938e-17
CD43 D#21 MX30/M1#d 1.17573e-17
CD44 MX30/M0#g MX30/M0#s 1.15034e-17
CD45 D VSS#23 9.66228e-18
CD46 MX30/M1#g MX30/M1#d 1.51589e-17
CD47 MX30/M0#g VSS#4 6.26364e-18
CD48 MX32/M0#g VDD#1 7.17149e-18
CD49 MX32/M0#g VDD#8 3.54546e-18
CD50 MX32/M1#g VDD#8 3.54546e-18
CD51 MX32/M1#g VDD 1.46264e-17
CD52 MX32/M0#g VDD 1.50432e-17
CD53 MX32/M1#g VDD#1 7.14759e-18
CD54 D VDD 2.85731e-17
RgD40 MX32/M1#g D#15 368.178741 $L=1.165 $W=0.15
RgD41 D#15 D#16 20.521515 $L=0.218 $W=0.33
RgD42 D#16 D#17 20.521515 $L=0.218 $W=0.33
RgD43 D#17 D#18 46.128941 $L=0.1645 $W=0.17
RgD44 D#18 MX30/M0#g 237.857559 $L=0.74 $W=0.15
RgD45 D#15 D#19 46.128941 $L=0.1645 $W=0.17
RgD46 D#19 MX30/M1#g 237.857559 $L=0.74 $W=0.15
RgD47 D#17 D#20 46.131256 $L=0.1645 $W=0.17
RgD48 D#20 MX32/M0#g 321.404205 $L=1 $W=0.15
RfD49 D#21 D#22 26.352942 $L=0.35 $W=0.17
ReD50 D D#23 0.076923 $L=0.16 $W=0.26
RjD51 D#21 D#23 152.000000 $A=0.0289
RiD52 D#16 D#22 7.500000 $A=0.0578
*
*|NET VSS 1.70213e-15
*|P (VSS X 0 2.4150 0.0050)
*|I (MX30/M0#s MX30/M0 s X 0 3.4995 0.9700)
*|I (MX30/M1#d MX30/M1 d X 0 4.0805 0.9700)
*|I (MX29/M0#s MX29/M0 s X 0 1.2595 0.9700)
*|I (MX29/M1#d MX29/M1 d X 0 1.8405 0.9700)
*|I (MX27/M0#s MX27/M0 s X 0 2.6395 0.9700)
*|I (MX27/M1#d MX27/M1 d X 0 3.2205 0.9700)
*|I (MX26/M0#s MX26/M0 s X 0 0.3995 0.9700)
*|I (MX26/M1#d MX26/M1 d X 0 0.9805 0.9700)
*|S (VSS#2 4.2200 0.9700)
*|S (VSS#3 4.3675 0.0000)
*|S (VSS#4 3.3600 0.0000)
*|S (VSS#5 2.5000 0.0000)
*|S (VSS#6 2.3000 0.0000)
*|S (VSS#7 2.3000 0.0000)
*|S (VSS#9 1.9800 0.0000)
*|S (VSS#10 1.1200 0.0000)
*|S (VSS#11 0.1725 0.0000)
*|S (VSS#12 0.2600 0.1245)
*|S (VSS#14 0.2600 0.9700)
*|S (VSS#16 3.3600 0.9700)
*|S (VSS#18 2.5000 0.9700)
*|S (VSS#20 1.9800 0.9700)
*|S (VSS#22 1.1200 0.9700)
*|S (VSS#23 2.3000 0.0000)
RfF61 VSS#2 VSS#3 73.056740 $L=0.97 $W=0.17
RfF62 VSS#3 VSS#4 43.418163 $L=1.0075 $W=0.25
RfF63 VSS#4 VSS#5 43.481621 $L=0.86 $W=0.25
RfF64 VSS#5 VSS#6 9.964811 $L=0.2 $W=0.25
RfF65 VSS#6 VSS#9 16.108810 $L=0.32 $W=0.25
RfF66 VSS#9 VSS#10 43.481621 $L=0.86 $W=0.25
RfF67 VSS#10 VSS#11 43.100529 $L=0.9475 $W=0.25
RfF68 VSS#11 VSS#12 3.709770 $L=0.1245 $W=0.345
RfF69 VSS#12 VSS#14 63.632805 $L=0.845 $W=0.17
RfF70 VSS#4 VSS#16 66.427444 $L=0.97 $W=0.17
RfF71 VSS#5 VSS#18 66.427444 $L=0.97 $W=0.17
RfF72 VSS#9 VSS#20 66.427444 $L=0.97 $W=0.17
RfF73 VSS#10 VSS#22 66.427444 $L=0.97 $W=0.17
ReF74 VSS VSS#23 0.035937 $L=0.115 $W=0.4
RhF75 MX30/M1#d VSS#2 7.500000 $A=0.0578
RhF76 MX26/M0#s VSS#14 7.500000 $A=0.0578
RhF77 MX30/M0#s VSS#16 7.500000 $A=0.0578
RhF78 MX27/M0#s VSS#18 7.500000 $A=0.0578
RhF79 MX29/M1#d VSS#20 7.500000 $A=0.0578
RhF80 MX29/M0#s VSS#22 7.500000 $A=0.0578
Rh_3_F81 VSS#7 VSS#6 1.666667 $A=0.2601
RjF82 VSS#6 VSS#23 16.888889 $A=0.2601
RmwF83 MX27/M1#d MX30/M0#s 0.001000 $W=1000000
RmwF84 MX26/M1#d MX29/M0#s 0.001000 $W=1000000
*
*|NET 16 9.86243e-16
*|I (MX32/M0#s MX32/M0 s X 0 3.4995 3.0400)
*|I (MX32/M1#d MX32/M1 d X 0 4.0805 3.0400)
*|I (MX25/M0#s MX25/M0 s X 0 2.6395 3.0400)
*|I (MX25/M1#d MX25/M1 d X 0 3.2205 3.0400)
*|S (16 2.5000 3.3850)
*|S (16#3 2.5000 3.0400)
*|S (16#4 3.3600 3.3850)
*|S (16#6 3.3600 3.0400)
*|S (16#7 4.2200 3.3850)
*|S (16#9 4.2200 3.0400)
*|S (16#10 4.2200 3.3850)
*|S (16#11 3.3600 3.3850)
*|S (16#12 2.5000 3.3850)
CJ1 MX25/M0#s VSS 1.19342e-17
CJ2 MX32/M1#d VSS 4.7383e-19
CJ3 MX32/M0#s VSS 1.61599e-18
CJ4 16#12 VSS 4.15521e-18
CJ5 16#11 VSS 7.91305e-18
CJ6 16#10 VSS 1.05242e-18
CJ7 MX25/M0#s MX27/M0#s 3.63301e-18
CJ8 MX32/M0#s MX30/M0#s 3.63301e-18
RfJ133 16 16#3 25.976471 $L=0.345 $W=0.17
RfJ134 16#4 16#6 25.976471 $L=0.345 $W=0.17
RfJ135 16#7 16#9 25.976471 $L=0.345 $W=0.17
ReJ136 16#10 16#11 0.467391 $L=0.86 $W=0.23
ReJ137 16#11 16#12 0.467391 $L=0.86 $W=0.23
Rh_2_J138 MX25/M0#s 16#3 5.000000 $A=0.0867
Rh_2_J139 MX32/M0#s 16#6 5.000000 $A=0.0867
Rh_2_J140 MX32/M1#d 16#9 5.000000 $A=0.0867
RjJ141 16#7 16#10 152.000000 $A=0.0289
RjJ142 16#4 16#11 152.000000 $A=0.0289
RjJ143 16 16#12 152.000000 $A=0.0289
RmwJ144 MX25/M1#d MX32/M0#s 0.001000 $W=1000000
*
*|NET C 5.66373e-16
*|P (C X 0 2.7750 1.8000)
*|I (MX27/M0#g MX27/M0 g X 0 2.7150 0.9700)
*|I (MX27/M1#g MX27/M1 g X 0 3.1450 0.9700)
*|I (MX25/M0#g MX25/M0 g X 0 2.7150 3.0400)
*|I (MX25/M1#g MX25/M1 g X 0 3.1450 3.0400)
*|S (C#15 3.1450 1.6650)
*|S (C#16 2.9300 1.6650)
*|S (C#17 2.7050 1.6650)
*|S (C#18 2.7050 1.5000)
*|S (C#19 3.1550 1.5000)
*|S (C#20 2.7050 1.8295)
*|S (C#21 2.9300 1.6650)
*|S (C#22 2.7600 1.6650)
*|S (C#23 2.7600 1.6650)
CC1 MX25/M1#g VSS 1.45588e-18
CC2 MX25/M0#g VSS 7.76853e-18
CC3 MX27/M1#g VSS 1.32547e-17
CC4 MX27/M0#g VSS 1.88267e-17
CC5 C#23 VSS 1.15566e-17
CC6 C#21 VSS 3.06114e-17
CC7 C VSS 1.71869e-17
CC8 C MX32/M0#s 1.79711e-18
CC9 C#21 16#11 1.775e-18
CC10 MX25/M1#g MX25/M0#s 3.06597e-18
CC11 MX25/M1#g MX32/M0#s 1.55802e-17
CC12 MX25/M0#g MX32/M0#s 3.24617e-18
CC13 MX25/M0#g MX25/M0#s 1.79635e-17
CC14 MX25/M1#g 16#11 8.85291e-18
CC15 C MX25/M0#s 5.05462e-18
CC16 MX25/M0#g 15#7 1.78244e-18
CC17 MX25/M0#g MX25/M0#d 1.63781e-17
CC18 C 15#7 1.44462e-17
CC19 MX25/M1#g MX25/M0#d 1.5593e-17
CC20 C#21 MX25/M0#d 4.8574e-18
CC21 C#21 15#7 5.44782e-18
CC22 C MX25/M0#d 1.17385e-17
CC23 MX27/M1#g Y#15 2.09557e-18
CC24 C#23 Y#6 1.31604e-18
CC25 C#23 Y#19 2.33377e-17
CC26 C#21 Y#9 2.34644e-17
CC27 C#21 Y#19 1.29534e-17
CC28 MX27/M0#g Y#9 1.10646e-17
CC29 C#23 Y#18 4.67358e-18
CC30 MX25/M1#g Y#12 3.1892e-18
CC31 C#23 Y#9 1.46307e-17
CC32 MX27/M1#g Y#19 3.52376e-18
CC33 C Y#17 1.00723e-17
CC34 C#23 Y 1.40349e-17
CC35 C Y 1.94587e-17
CC36 C#21 Y 1.22414e-17
CC37 MX27/M1#g Y#9 1.05618e-17
CC38 MX27/M0#g MX30/M0#s 2.42645e-18
CC39 MX27/M1#g MX27/M0#s 2.20579e-18
CC40 C#21 VSS#23 2.12399e-18
CC41 C#23 MX29/M1#d 3.48522e-18
CC42 C#23 MX30/M0#s 3.52887e-18
CC43 MX27/M1#g VSS#4 6.18907e-18
CC44 MX27/M1#g VSS#23 3.28533e-18
CC45 MX27/M1#g MX30/M0#s 1.15034e-17
CC46 MX27/M0#g MX27/M0#s 1.3231e-17
CC47 MX27/M0#g VSS#6 6.26364e-18
CC48 MX27/M0#g MX29/M1#d 3.6027e-18
CC49 MX27/M0#g VSS#23 3.28533e-18
CC50 C#23 MX27/M0#s 1.2123e-17
CC51 MX25/M1#g VDD#1 4.02959e-18
CC52 MX25/M0#g VDD#1 7.17149e-18
CC53 MX25/M1#g VDD 1.30178e-17
CC54 MX25/M0#g VDD#8 3.54546e-18
CC55 MX25/M0#g VDD 1.71364e-17
CC56 MX25/M1#g VDD#8 3.54546e-18
CC57 C VDD 1.08038e-17
RgC27 MX25/M1#g C#15 435.658752 $L=1.375 $W=0.15
RgC28 C#15 C#16 20.521515 $L=0.218 $W=0.33
RgC29 C#16 C#17 20.521515 $L=0.218 $W=0.33
RgC30 C#17 C#18 46.128941 $L=0.1645 $W=0.17
RgC31 C#18 MX27/M0#g 170.377548 $L=0.53 $W=0.15
RgC32 C#15 C#19 46.128941 $L=0.1645 $W=0.17
RgC33 C#19 MX27/M1#g 170.377548 $L=0.53 $W=0.15
RgC34 C#17 C#20 46.131256 $L=0.1645 $W=0.17
RgC35 C#20 MX25/M0#g 388.884216 $L=1.21 $W=0.15
RfC36 C#21 C#22 12.800000 $L=0.17 $W=0.17
ReC37 C C#23 0.064904 $L=0.135 $W=0.26
RjC38 C#22 C#23 152.000000 $A=0.0289
RiC39 C#16 C#21 7.500000 $A=0.0578
*
*Instance Section
*
MX30/M0	MX30/M0#d	MX30/M0#g	MX30/M0#s	VSS	nfet_01v8
+ L=1.5e-07	W=8.4e-07
MX30/M1	MX30/M1#d	MX30/M1#g	MX30/M1#s	VSS	nfet_01v8
+ L=1.5e-07	W=8.4e-07
MX29/M0	MX29/M0#d	MX29/M0#g	MX29/M0#s	VSS	nfet_01v8
+ L=1.5e-07	W=8.4e-07
MX29/M1	MX29/M1#d	MX29/M1#g	MX29/M1#s	VSS	nfet_01v8
+ L=1.5e-07	W=8.4e-07
MX27/M0	MX27/M0#d	MX27/M0#g	MX27/M0#s	VSS	nfet_01v8
+ L=1.5e-07	W=8.4e-07
MX27/M1	MX27/M1#d	MX27/M1#g	MX27/M1#s	VSS	nfet_01v8
+ L=1.5e-07	W=8.4e-07
MX26/M0	MX26/M0#d	MX26/M0#g	MX26/M0#s	VSS	nfet_01v8
+ L=1.5e-07	W=8.4e-07
MX26/M1	MX26/M1#d	MX26/M1#g	MX26/M1#s	VSS	nfet_01v8
+ L=1.5e-07	W=8.4e-07
MX32/M0	MX32/M0#d	MX32/M0#g	MX32/M0#s	VDD	pfet_01v8_hvt
+ L=1.5e-07	W=1.24e-06
MX32/M1	MX32/M1#d	MX32/M1#g	MX32/M1#s	VDD	pfet_01v8_hvt
+ L=1.5e-07	W=1.24e-06
MX31/M0	MX31/M0#d	MX31/M0#g	MX31/M0#s	VDD	pfet_01v8_hvt
+ L=1.5e-07	W=1.24e-06
MX31/M1	MX31/M1#d	MX31/M1#g	MX31/M1#s	VDD	pfet_01v8_hvt
+ L=1.5e-07	W=1.24e-06
MX28/M0	MX28/M0#d	MX28/M0#g	MX28/M0#s	VDD	pfet_01v8_hvt
+ L=1.5e-07	W=1.24e-06
MX28/M1	MX28/M1#d	MX28/M1#g	MX28/M1#s	VDD	pfet_01v8_hvt
+ L=1.5e-07	W=1.24e-06
MX25/M0	MX25/M0#d	MX25/M0#g	MX25/M0#s	VDD	pfet_01v8_hvt
+ L=1.5e-07	W=1.24e-06
MX25/M1	MX25/M1#d	MX25/M1#g	MX25/M1#s	VDD	pfet_01v8_hvt
+ L=1.5e-07	W=1.24e-06
.ENDS
