*
*|DSPF 1.5
*
*|DATE "Fri Feb 28 12:35:05 2025"
*|VENDOR "Cadence Design Systems"
*|PROGRAM "Cadence Quantus Extraction"
*|VERSION "22.1.0-p089 Linux 64 bit - (Thu Jan 19 11:47:08 PST 2023)"
*|DESIGN "OAI222X1_LP"
*|DIVIDER /
*|DELIMITER #
*|DeviceFingerDelim "@"
*|BUSBIT []
*|GLOBAL_TEMPERATURE 25
*|OPERATING_TEMPERATURE 25
** QRC_TECH_DIR /vols/wfo_devel/projects/reference_SKY130/tech/sky130_release_0.0.4/quantus/extraction/typical 
** HIERARCHICAL_SPLIT_PINS_DELIMITER '%'
** caps2d version: 10
*
.SUBCKT  OAI222X1_LP A0 A1 B0 B1 C0 C1 VDD VSS Y
*
*Net Section
*
*|GROUND_NET VSS
*
*|NET B1 5.78416e-16
*|P (B1 X 0 1.8550 2.1750)
*|I (MX32/M0#g MX32/M0 g X 0 2.2850 0.8000)
*|I (MX33/M0#g MX33/M0 g X 0 2.2850 3.2400)
*|S (B1#8 2.2750 2.1450)
*|S (B1#9 2.2750 1.9800)
*|S (B1#10 2.2750 2.1450)
*|S (B1#11 1.8400 2.1450)
*|S (B1#12 1.8400 2.1450)
CD1 MX33/M0#g VSS 2.16314e-18
CD2 MX32/M0#g VSS 3.32313e-17
CD3 B1#12 VSS 8.42537e-18
CD4 B1#10 VSS 9.14335e-18
CD5 B1#11 VSS 5.01149e-18
CD6 B1#11 21#7 1.93296e-18
CD7 B1#10 21#4 1.71121e-18
CD8 MX32/M0#g 21#4 1.52535e-18
CD9 MX32/M0#g MX32/M0#s 4.68932e-18
CD10 B1#11 21#4 3.44162e-18
CD11 B1#12 21#7 2.09473e-17
CD12 B1#11 16 3.60382e-18
CD13 MX33/M0#g 16 7.79652e-18
CD14 B1#10 16 4.17827e-18
CD15 B1#10 MX33/M0#d 2.85991e-18
CD16 MX33/M0#g Y#13 2.231e-18
CD17 B1#11 Y#13 1.25456e-18
CD18 B1#12 Y#13 2.0926e-17
CD19 B1#10 Y 6.76775e-18
CD20 B1#10 Y#13 3.20398e-18
CD21 B1#12 Y#15 9.11066e-18
CD22 MX33/M0#g MX33/M0#d 7.79987e-18
CD23 B1#12 Y 4.42791e-18
CD24 MX33/M0#g MX19/M0#d 1.73864e-18
CD25 B1#12 MX19/M0#d 5.85687e-18
CD26 MX33/M0#g VDD 1.26637e-17
CD27 B1#10 VDD 8.26496e-18
CD28 MX33/M0#g VDD#7 5.81423e-18
CD29 B1#12 VDD 1.60724e-17
CD30 B1#11 VDD 6.39482e-18
CD31 B1#11 MX19/M0#d 3.1555e-18
CD32 MX33/M0#g VDD#14 2.98159e-18
CD33 MX33/M0#g C1 2.8514e-18
CD34 MX32/M0#g C1#12 2.74702e-18
CD35 B1#12 C1#12 3.06256e-17
CD36 MX32/M0#g C1#11 4.26167e-18
CD37 B1#10 C1 2.63949e-17
CD38 B1#12 C1 8.42685e-17
CD39 B1#12 C1#11 3.36867e-18
CD40 B1#10 C1#11 1.69632e-17
RgD25 MX33/M0#g B1#8 333.019073 $L=1.095 $W=0.15
RgD26 B1#8 B1#9 34.134449 $L=0.1645 $W=0.27
RgD27 B1#9 MX32/M0#g 379.217957 $L=1.18 $W=0.15
RfD28 B1#10 B1#11 32.752941 $L=0.435 $W=0.17
ReD29 B1#12 B1 0.014423 $L=0.03 $W=0.26
RjD30 B1#11 B1#12 152.000000 $A=0.0289
RiD31 B1#8 B1#10 15.000000 $A=0.0289
*
*|NET C0 4.26619e-16
*|P (C0 X 0 3.2350 2.2150)
*|I (MX29/M0#g MX29/M0 g X 0 3.1450 0.8000)
*|I (MX20/M0#g MX20/M0 g X 0 3.1450 3.2400)
*|S (C0#8 3.2050 2.3095)
*|S (C0#9 3.2050 2.1450)
*|S (C0#10 3.2050 1.9800)
*|S (C0#11 3.2200 2.1450)
*|S (C0#12 3.2050 2.1450)
*|S (C0#13 3.2200 2.1450)
CE1 MX20/M0#g VSS 9.48002e-18
CE2 MX29/M0#g VSS 1.92046e-17
CE3 C0#12 VSS 1.6355e-17
CE4 C0 VSS 3.49361e-17
CE5 MX29/M0#g 23#9 6.89858e-18
CE6 MX29/M0#g 23#10 2.43091e-18
CE7 C0 23#9 3.77947e-18
CE8 C0 23#10 1.58021e-17
CE9 C0#12 23#10 5.86906e-18
CE10 C0#12 23#9 3.79298e-18
CE11 MX20/M0#g MX33/M0#d 1.5739e-18
CE12 MX29/M0#g MX30/M0#s 5.77196e-18
CE13 C0#12 Y 7.7617e-18
CE14 C0 Y#13 2.16442e-17
CE15 C0 Y 9.98365e-17
CE16 C0 Y#10 2.22772e-17
CE17 C0#12 Y#10 4.42152e-18
CE18 MX29/M0#g VSS#2 5.74683e-18
CE19 C0 VSS#2 2.13569e-18
CE20 C0#12 VSS#11 2.2687e-18
CE21 MX29/M0#g VSS#11 2.80165e-18
CE22 C0 VDD#3 1.84232e-18
CE23 MX20/M0#g MX20/M0#d 1.15141e-17
CE24 C0 VDD#14 1.16621e-17
CE25 MX20/M0#g VDD 1.33294e-17
CE26 C0 MX20/M0#d 1.02411e-17
CE27 MX20/M0#g VDD#3 4.34129e-18
CE28 C0#12 MX20/M0#d 6.25453e-18
CE29 C0#12 VDD 1.84071e-17
CE30 C0 VDD 4.48156e-17
CE31 MX20/M0#g VDD#14 3.99545e-18
CE32 C0#12 VDD#14 5.4272e-18
RgE32 MX20/M0#g C0#8 298.884613 $L=0.93 $W=0.15
RgE33 C0#8 C0#9 38.857975 $L=0.1645 $W=0.27
RgE34 C0#9 C0#10 29.410927 $L=0.1645 $W=0.27
RgE35 C0#10 MX29/M0#g 379.217957 $L=1.18 $W=0.15
RfE36 C0#11 C0#12 1.129412 $L=0.015 $W=0.17
ReE37 C0#13 C0 0.033654 $L=0.07 $W=0.26
RjE38 C0#11 C0#13 152.000000 $A=0.0289
RiE39 C0#9 C0#12 15.000000 $A=0.0289
*
*|NET Y 1.19424e-15
*|P (Y X 0 2.7750 2.2200)
*|I (MX30/M0#s MX30/M0 s X 0 2.7905 0.8000)
*|I (MX29/M0#s MX29/M0 s X 0 3.0695 0.8000)
*|I (MX33/M0#d MX33/M0 d X 0 2.3605 3.2400)
*|I (MX18/M0#d MX18/M0 d X 0 0.9805 3.2400)
*|I (MM0#s MM0 s X 0 2.6395 3.2400)
*|S (Y#1 1.1200 3.3850)
*|S (Y#3 1.1200 3.2400)
*|S (Y#4 2.5000 3.3850)
*|S (Y#6 2.5000 3.2400)
*|S (Y#7 2.9300 1.1850)
*|S (Y#9 2.9300 0.8000)
*|S (Y#10 2.9300 1.1850)
*|S (Y#11 2.8375 1.3295)
*|S (Y#12 2.7600 3.3850)
*|S (Y#13 2.5000 3.3850)
*|S (Y#14 2.3850 3.3850)
*|S (Y#15 1.2345 3.3850)
*|S (Y#16 1.1200 3.3850)
CI1 MX18/M0#d VSS 2.10251e-18
CI2 MX33/M0#d VSS 1.61238e-18
CI3 MX30/M0#s VSS 9.60132e-19
CI4 Y#15 VSS 1.00468e-17
CI5 Y#13 VSS 7.31334e-18
CI6 Y#10 VSS 4.14046e-17
CI7 Y#7 VSS 2.33497e-17
CI8 Y VSS 5.7626e-18
CI9 Y#7 23#6 1.87039e-18
CI10 MX30/M0#s 23#10 1.01676e-17
CI11 MX30/M0#s 23#9 1.76727e-17
CI12 MX30/M0#s 23#6 1.76734e-17
CI13 Y#10 23#10 2.05829e-17
CI14 Y#10 23#11 3.88551e-17
CI15 Y#7 23#9 4.7585e-18
CI16 MX30/M0#s 23#11 9.55902e-18
CI17 MX18/M0#d 21#8 1.95149e-18
CI18 Y#7 21#4 5.23774e-18
CI19 Y#13 18 3.6211e-17
CI20 Y#10 21#4 7.20053e-18
CI21 Y#10 21#7 1.41985e-17
CI22 Y#10 18 2.6266e-18
CI23 Y#7 21#7 4.51759e-18
CI24 MX33/M0#d 18 2.57607e-17
CI25 MX18/M0#d 14 2.95957e-17
CI26 Y#13 16 3.34135e-17
CI27 MX33/M0#d 16 2.66996e-17
CI28 Y#15 14 7.33809e-18
CI29 MX30/M0#s VSS#2 7.32864e-18
CI30 MX30/M0#s VSS#11 5.33516e-18
RfI70 Y#1 Y#3 10.917646 $L=0.145 $W=0.17
RfI71 Y#4 Y#6 10.917646 $L=0.145 $W=0.17
RfI72 Y#7 Y#9 28.988235 $L=0.385 $W=0.17
ReI73 Y#10 Y#11 0.055720 $L=0.1445 $W=0.415
ReI74 Y#11 Y 0.427960 $L=0.89 $W=0.26
ReI75 Y Y#12 0.525440 $L=1.165 $W=0.26
ReI76 Y#12 Y#13 0.091090 $L=0.26 $W=0.29
ReI77 Y#13 Y#14 0.049461 $L=0.1145 $W=0.29
ReI78 Y#14 Y#15 0.625216 $L=1.15 $W=0.23
ReI79 Y#15 Y#16 0.053985 $L=0.1145 $W=0.29
RhI80 MX30/M0#s Y#9 15.000000 $A=0.0289
Rh_2_I81 MX18/M0#d Y#3 15.000000 $A=0.0289
Rh_2_I82 MX33/M0#d Y#6 15.000000 $A=0.0289
RjI83 Y#7 Y#10 152.000000 $A=0.0289
RjI84 Y#4 Y#13 152.000000 $A=0.0289
RjI85 Y#1 Y#16 152.000000 $A=0.0289
RmwI86 MX29/M0#s MX30/M0#s 0.001000 $W=1000000
RmwI87 MM0#s MX33/M0#d 0.001000 $W=1000000
*
*|NET VSS 1.16286e-15
*|P (VSS X 0 2.4150 0.0050)
*|I (MX22/M0#d MX22/M0 d X 0 0.9805 0.8000)
*|I (MX21/M0#d MX21/M0 d X 0 0.3995 0.8000)
*|S (VSS#1 1.8400 0.0000)
*|S (VSS#2 1.8400 0.0000)
*|S (VSS#4 1.1200 0.0000)
*|S (VSS#5 0.1725 0.0000)
*|S (VSS#6 0.2600 0.1245)
*|S (VSS#8 0.2600 0.8000)
*|S (VSS#10 1.1200 0.8000)
*|S (VSS#11 1.8400 0.0000)
RfH60 VSS#1 VSS#4 36.588810 $L=0.72 $W=0.25
RfH61 VSS#4 VSS#5 43.100529 $L=0.9475 $W=0.25
RfH62 VSS#5 VSS#6 3.709770 $L=0.1245 $W=0.345
RfH63 VSS#6 VSS#8 50.832806 $L=0.675 $W=0.17
RfH64 VSS#4 VSS#10 53.627445 $L=0.8 $W=0.17
ReH65 VSS VSS#11 0.179688 $L=0.575 $W=0.4
RhH66 MX21/M0#d VSS#8 15.000000 $A=0.0289
RhH67 MX22/M0#d VSS#10 15.000000 $A=0.0289
Rh_3_H68 VSS#2 VSS#1 2.142857 $A=0.2023
RjH69 VSS#1 VSS#11 21.714285 $A=0.2023
*
*|NET A1 5.09098e-16
*|P (A1 X 0 0.9350 2.2800)
*|I (MX22/M0#g MX22/M0 g X 0 0.9050 0.8000)
*|I (MX18/M0#g MX18/M0 g X 0 0.9050 3.2400)
*|S (A1#8 0.9650 2.3095)
*|S (A1#9 0.9650 2.1450)
*|S (A1#10 0.9650 1.9800)
*|S (A1#11 0.9650 2.1450)
*|S (A1#12 0.9200 2.1450)
*|S (A1#13 0.9200 2.1450)
CB1 MX18/M0#g VSS 3.73188e-18
CB2 MX22/M0#g VSS 1.70243e-17
CB3 A1#13 VSS 6.31657e-18
CB4 A1#12 VSS 1.12568e-17
CB5 A1 VSS 6.68762e-19
CB6 MX22/M0#g 21 1.6146e-18
CB7 A1#13 21#8 1.70136e-17
CB8 MX22/M0#g MX22/M0#s 4.95011e-18
CB9 A1#12 21#8 6.23795e-18
CB10 A1#12 21 3.46611e-18
CB11 MX22/M0#g 21#8 4.24466e-18
CB12 A1#12 14 4.16063e-18
CB13 MX18/M0#g 14 8.2391e-18
CB14 A1#12 Y#15 4.27165e-18
CB15 A1 MX18/M0#d 6.25348e-18
CB16 A1#12 MX18/M0#d 5.63208e-18
CB17 A1 Y#15 1.48691e-17
CB18 MX18/M0#g MX18/M0#d 8.97187e-18
CB19 MX22/M0#g MX21/M0#d 1.64089e-18
CB20 A1#13 MX22/M0#d 1.39327e-18
CB21 A1#12 MX22/M0#d 2.5963e-18
CB22 MX22/M0#g VSS#4 4.29097e-18
CB23 MX22/M0#g MX22/M0#d 7.19663e-18
CB24 MX22/M0#g VSS#11 3.71905e-18
CB25 A1 VDD#8 2.3879e-18
CB26 MX18/M0#g MX31/M0#d 2.30855e-18
CB27 MX18/M0#g VDD#7 2.0156e-18
CB28 A1 VDD#14 9.56068e-18
CB29 MX18/M0#g VDD#8 3.77925e-18
CB30 A1#12 VDD 1.31608e-17
CB31 MX18/M0#g VDD 1.43386e-17
CB32 MX18/M0#g VDD#14 4.09245e-18
CB33 MX18/M0#g MX19/M0#d 2.70505e-18
CB34 A1#12 VDD#14 2.68218e-18
CB35 A1 VDD 3.67443e-17
CB36 A1 B1#12 1.19916e-17
CB37 A1#12 B1#11 5.6897e-18
CB38 A1#13 B0#12 3.6457e-18
CB39 A1#12 B0#12 7.72941e-18
CB40 A1#13 B0 3.02776e-17
CB41 A1#13 B0#13 2.11341e-17
CB42 A1 B0 5.36041e-17
CB43 A1#12 B0 1.33254e-17
RgB9 MX18/M0#g A1#8 298.884613 $L=0.93 $W=0.15
RgB10 A1#8 A1#9 38.857975 $L=0.1645 $W=0.27
RgB11 A1#9 A1#10 29.410927 $L=0.1645 $W=0.27
RgB12 A1#10 MX22/M0#g 379.217957 $L=1.18 $W=0.15
RfB13 A1#11 A1#12 3.388236 $L=0.045 $W=0.17
ReB14 A1 A1#13 0.064904 $L=0.135 $W=0.26
RjB15 A1#12 A1#13 152.000000 $A=0.0289
RiB16 A1#9 A1#11 15.000000 $A=0.0289
*
*|NET C1 5.95043e-16
*|P (C1 X 0 2.3150 1.9700)
*|I (MX30/M0#g MX30/M0 g X 0 2.7150 0.8000)
*|I (MM0#g MM0 g X 0 2.7150 3.2400)
*|S (C1#8 2.7050 1.6250)
*|S (C1#9 2.7050 1.4600)
*|S (C1#10 2.7050 1.6250)
*|S (C1#11 2.3000 1.6250)
*|S (C1#12 2.3000 1.6250)
CF1 MM0#g VSS 9.35175e-18
CF2 MX30/M0#g VSS 1.69997e-17
CF3 C1#12 VSS 1.12142e-17
CF4 C1#10 VSS 2.31132e-17
CF5 C1#11 VSS 1.15329e-17
CF6 C1 VSS 3.44606e-18
CF7 C1#12 23#6 2.41845e-18
CF8 C1#11 23#6 2.15614e-18
CF9 C1#10 23#11 1.70634e-18
CF10 C1#10 23#6 3.15812e-18
CF11 C1#11 23#11 2.98019e-18
CF12 MX30/M0#g 23#6 5.2731e-18
CF13 C1#12 23#11 1.28486e-17
CF14 C1#11 21#7 2.12948e-18
CF15 C1#11 21#4 1.04945e-17
CF16 C1#12 21#7 1.81837e-17
CF17 MM0#g Y#13 2.90102e-18
CF18 C1#10 MX33/M0#d 2.71407e-18
CF19 MX30/M0#g Y#7 1.14872e-18
CF20 MM0#g MX33/M0#d 7.81717e-18
CF21 C1 MX33/M0#d 3.61498e-18
CF22 C1#10 Y#7 1.29289e-17
CF23 C1 Y#13 1.80478e-17
CF24 MX30/M0#g MX30/M0#s 5.06595e-18
CF25 C1#10 Y#10 2.85317e-17
CF26 MX30/M0#g Y#10 3.23831e-18
CF27 C1 Y 8.04817e-17
CF28 C1#12 Y 9.57278e-18
CF29 C1#12 Y#10 4.015e-17
CF30 MX30/M0#g VSS#11 2.80165e-18
CF31 MX30/M0#g VSS#2 5.74683e-18
CF32 MM0#g MX20/M0#d 2.17557e-18
CF33 MM0#g VDD#3 5.81423e-18
CF34 MM0#g VDD 1.8266e-17
CF35 C1 VDD 9.33756e-18
CF36 MM0#g VDD#14 2.98159e-18
RgF40 MM0#g C1#8 500.112427 $L=1.615 $W=0.15
RgF41 C1#8 C1#9 34.134449 $L=0.1645 $W=0.27
RgF42 C1#9 MX30/M0#g 212.124634 $L=0.66 $W=0.15
RfF43 C1#10 C1#11 30.494118 $L=0.405 $W=0.17
ReF44 C1 C1#12 0.165865 $L=0.345 $W=0.26
RjF45 C1#11 C1#12 152.000000 $A=0.0289
RiF46 C1#8 C1#10 15.000000 $A=0.0289
*
*|NET B0 5.59117e-16
*|P (B0 X 0 1.3950 1.9850)
*|I (MX23/M0#g MX23/M0 g X 0 1.8550 0.8000)
*|I (MX19/M0#g MX19/M0 g X 0 1.8550 3.2400)
*|S (B0#8 1.7950 1.7895)
*|S (B0#9 1.7950 1.6250)
*|S (B0#10 1.7950 1.4600)
*|S (B0#11 1.7950 1.6250)
*|S (B0#12 1.3800 1.6250)
*|S (B0#13 1.3800 1.6250)
CC1 MX19/M0#g VSS 9.08178e-18
CC2 MX23/M0#g VSS 1.65882e-17
CC3 B0#13 VSS 4.49784e-18
CC4 B0#11 VSS 1.20614e-17
CC5 B0#12 VSS 1.60903e-17
CC6 B0 VSS 4.33087e-18
CC7 B0#12 23#3 2.29315e-18
CC8 MX23/M0#g 23#12 1.8562e-18
CC9 B0#11 23#12 1.10623e-18
CC10 B0#11 23#3 3.44531e-18
CC11 MX23/M0#g 23#3 6.05617e-18
CC12 B0#12 21#8 4.33908e-18
CC13 B0#13 21#8 2.09468e-17
CC14 B0#13 21#7 2.08099e-17
CC15 B0#11 21#7 8.22459e-18
CC16 B0#12 21#7 3.54301e-18
CC17 MX23/M0#g MX32/M0#s 4.90262e-18
CC18 MX23/M0#g 21#7 2.8887e-18
CC19 MX19/M0#g Y#13 2.59809e-18
CC20 MX19/M0#g MX18/M0#d 2.39007e-18
CC21 B0#12 Y#15 1.81275e-18
CC22 MX19/M0#g MX33/M0#d 1.62308e-18
CC23 B0 Y#15 1.4523e-17
CC24 MX23/M0#g MX22/M0#d 1.88846e-18
CC25 MX23/M0#g VSS#2 5.74683e-18
CC26 B0#12 VSS#11 3.19077e-18
CC27 MX23/M0#g VSS#11 2.80165e-18
CC28 MX19/M0#g VDD#14 2.63961e-18
CC29 B0#12 MX19/M0#d 2.05856e-18
CC30 B0#11 MX19/M0#d 1.73723e-18
CC31 MX19/M0#g VDD#7 4.34129e-18
CC32 MX19/M0#g MX19/M0#d 1.0077e-17
CC33 B0 VDD 1.34018e-17
CC34 MX19/M0#g VDD 1.31037e-17
CC35 B0#11 C1#12 3.91843e-18
CC36 B0#13 C1#12 6.26246e-18
CC37 B0#11 C1#11 1.30382e-17
CC38 MX19/M0#g B1#11 2.56907e-18
CC39 B0#11 B1#12 1.73288e-17
CC40 B0 B1#12 8.57498e-17
CC41 B0 B1#11 5.53061e-18
CC42 MX19/M0#g B1#12 4.60564e-18
CC43 B0#11 B1#11 1.50724e-17
CC44 B0#13 B1#12 2.90723e-17
RgC17 MX19/M0#g B0#8 465.977966 $L=1.45 $W=0.15
RgC18 B0#8 B0#9 38.857975 $L=0.1645 $W=0.27
RgC19 B0#9 B0#10 29.410927 $L=0.1645 $W=0.27
RgC20 B0#10 MX23/M0#g 212.124634 $L=0.66 $W=0.15
RfC21 B0#11 B0#12 31.247059 $L=0.415 $W=0.17
ReC22 B0 B0#13 0.173077 $L=0.36 $W=0.26
RjC23 B0#12 B0#13 152.000000 $A=0.0289
RiC24 B0#9 B0#11 15.000000 $A=0.0289
*
*|NET 21 6.51557e-16
*|I (MX32/M0#s MX32/M0 s X 0 2.2095 0.8000)
*|I (MX23/M0#s MX23/M0 s X 0 1.9305 0.8000)
*|I (MX22/M0#s MX22/M0 s X 0 0.8295 0.8000)
*|I (MX21/M0#s MX21/M0 s X 0 0.5505 0.8000)
*|S (21 0.6900 1.1250)
*|S (21#3 0.6900 0.8000)
*|S (21#4 2.0700 1.1250)
*|S (21#6 2.0700 0.8000)
*|S (21#7 2.0700 1.1250)
*|S (21#8 0.6900 1.1250)
CK1 MX22/M0#s VSS 3.38269e-19
CK2 MX32/M0#s VSS 1.09299e-18
CK3 21#8 VSS 3.71308e-17
CK4 21#7 VSS 2.25876e-17
CK5 21#4 VSS 1.63439e-17
CK6 21 VSS 2.09792e-17
CK7 MX22/M0#s 23#12 2.7079e-18
CK8 21#4 23#3 3.52074e-18
CK9 MX32/M0#s 23#12 9.64309e-18
CK10 21#7 23#12 8.44068e-17
CK11 MX32/M0#s 23#6 1.60231e-17
CK12 MX32/M0#s 23#3 1.60231e-17
CK13 MX32/M0#s 23#11 9.60101e-18
CK14 21#7 23#3 9.08163e-18
CK15 21#7 23#11 1.83148e-17
CK16 21#4 23#6 3.52074e-18
CK17 MX22/M0#s VSS#5 2.41833e-18
CK18 MX22/M0#s VSS#4 2.39474e-18
CK19 21#8 VSS#5 1.62633e-18
CK20 21 MX22/M0#d 6.40885e-18
CK21 21#7 VSS#11 3.8559e-18
CK22 21#8 VSS#4 4.01734e-18
CK23 21#8 MX22/M0#d 1.94438e-17
CK24 MX22/M0#s MX21/M0#d 2.14545e-17
CK25 MX22/M0#s MX22/M0#d 1.976e-17
CK26 21 MX21/M0#d 3.52074e-18
CK27 MX32/M0#s VSS#11 5.25668e-18
CK28 MX22/M0#s VSS#11 6.20896e-18
CK29 MX32/M0#s VSS#2 7.31399e-18
CK30 21#8 VSS#11 2.68003e-17
RfK94 21 21#3 24.470589 $L=0.325 $W=0.17
RfK95 21#4 21#6 24.470589 $L=0.325 $W=0.17
ReK96 21#7 21#8 0.750000 $L=1.38 $W=0.23
RhK97 MX22/M0#s 21#3 15.000000 $A=0.0289
RhK98 MX32/M0#s 21#6 15.000000 $A=0.0289
RjK99 21#4 21#7 152.000000 $A=0.0289
RjK100 21 21#8 152.000000 $A=0.0289
RmwK101 MX23/M0#s MX32/M0#s 0.001000 $W=1000000
RmwK102 MX21/M0#s MX22/M0#s 0.001000 $W=1000000
*
*|NET VDD 9.16848e-16
*|P (VDD X 0 2.4150 4.1450)
*|I (MX31/M0#d MX31/M0 d X 0 0.3995 3.2400)
*|I (MX20/M0#d MX20/M0 d X 0 3.2205 3.2400)
*|I (MX19/M0#d MX19/M0 d X 0 1.7795 3.2400)
*|S (VDD#2 3.3600 3.2400)
*|S (VDD#3 3.4775 4.1400)
*|S (VDD#4 1.8400 4.1400)
*|S (VDD#5 1.8400 4.1400)
*|S (VDD#7 1.6400 4.1400)
*|S (VDD#8 0.1725 4.1400)
*|S (VDD#9 0.2600 4.0150)
*|S (VDD#11 0.2600 3.2400)
*|S (VDD#13 1.6400 3.2400)
*|S (VDD#14 1.8400 4.1400)
CG1 MX19/M0#d VSS 3.50346e-18
CG2 MX20/M0#d VSS 9.77237e-19
CG3 VDD#14 VSS 4.92198e-18
CG4 VDD#8 VSS 2.79809e-18
CG5 VDD#7 VSS 4.44031e-18
CG6 VDD#3 VSS 2.0719e-18
CG7 VDD VSS 4.21785e-18
CG8 VDD#3 18 6.05787e-18
CG9 MX20/M0#d 18 3.2727e-17
CG10 VDD 18 6.52239e-18
CG11 VDD#14 18 7.03042e-18
CG12 VDD 14 4.4863e-18
CG13 VDD#7 16 5.45037e-18
CG14 MX19/M0#d 16 2.82478e-17
CG15 MX31/M0#d 14 3.4614e-17
CG16 VDD#14 14 1.06791e-17
CG17 VDD#14 16 5.45066e-18
CG18 VDD#8 14 6.05787e-18
CG19 MX31/M0#d Y#15 4.16804e-18
CG20 VDD Y#10 2.93297e-18
CG21 VDD#7 Y#15 9.71616e-18
CG22 VDD#7 Y#13 1.22478e-17
CG23 VDD#3 Y#13 5.74863e-18
CG24 VDD#14 MX33/M0#d 5.59075e-18
CG25 VDD#7 MX33/M0#d 7.29445e-18
CG26 MX20/M0#d Y#13 1.05192e-17
CG27 MX19/M0#d Y#15 3.16167e-17
CG28 VDD#14 MX18/M0#d 5.45066e-18
CG29 VDD#14 Y#13 6.96707e-17
CG30 MX19/M0#d MX18/M0#d 2.18555e-17
CG31 VDD Y 1.13407e-17
CG32 VDD#7 MX18/M0#d 5.45037e-18
CG33 VDD#14 Y#15 4.87524e-17
CG34 VDD Y#15 6.67126e-18
CG35 VDD Y#13 1.30833e-17
RfG47 VDD#2 VDD#3 66.609085 $L=0.9 $W=0.17
RfG48 VDD#3 VDD#4 77.314651 $L=1.6375 $W=0.25
RfG49 VDD#4 VDD#7 9.964811 $L=0.2 $W=0.25
RfG50 VDD#7 VDD#8 69.724533 $L=1.4675 $W=0.25
RfG51 VDD#8 VDD#9 3.709770 $L=0.1245 $W=0.345
RfG52 VDD#9 VDD#11 58.362217 $L=0.775 $W=0.17
RfG53 VDD#7 VDD#13 61.156857 $L=0.9 $W=0.17
ReG54 VDD VDD#14 0.179688 $L=0.575 $W=0.4
Rh_1_G55 VDD#5 VDD#4 2.142857 $A=0.2023
Rh_2_G56 MX20/M0#d VDD#2 15.000000 $A=0.0289
Rh_2_G57 MX31/M0#d VDD#11 15.000000 $A=0.0289
Rh_2_G58 MX19/M0#d VDD#13 15.000000 $A=0.0289
RjG59 VDD#4 VDD#14 21.714285 $A=0.2023
*
*|NET A0 4.29662e-16
*|P (A0 X 0 0.4750 1.9650)
*|I (MX21/M0#g MX21/M0 g X 0 0.4750 0.8000)
*|I (MX31/M0#g MX31/M0 g X 0 0.4750 3.2400)
*|S (A0#8 0.4150 1.7895)
*|S (A0#9 0.4150 1.6250)
*|S (A0#10 0.4150 1.4600)
*|S (A0#11 0.4600 1.6250)
*|S (A0#12 0.4150 1.6250)
*|S (A0#13 0.4600 1.6250)
CA1 MX31/M0#g VSS 2.56519e-18
CA2 MX21/M0#g VSS 1.68565e-17
CA3 A0#13 VSS 3.09036e-17
CA4 A0#12 VSS 2.54278e-17
CA5 A0 VSS 1.39886e-17
CA6 MX21/M0#g 21 1.7931e-18
CA7 A0#13 21#8 2.71435e-17
CA8 MX21/M0#g MX22/M0#s 5.49735e-18
CA9 A0#12 21#8 2.98922e-18
CA10 A0#12 21 1.09946e-17
CA11 MX31/M0#g 14 9.14995e-18
CA12 A0#12 14 2.86248e-18
CA13 MX21/M0#g MX22/M0#d 1.67523e-18
CA14 A0#12 MX21/M0#d 9.53255e-18
CA15 A0#13 MX21/M0#d 3.10589e-18
CA16 A0#13 VSS#11 6.83092e-18
CA17 A0#12 VSS#11 4.96098e-18
CA18 MX21/M0#g VSS#5 4.29097e-18
CA19 MX21/M0#g VSS#11 3.48602e-18
CA20 MX21/M0#g MX21/M0#d 8.18414e-18
CA21 A0#12 MX31/M0#d 4.51078e-18
CA22 A0#12 VDD#14 3.40704e-18
CA23 MX31/M0#g VDD 1.66401e-17
CA24 A0 VDD#14 9.38551e-18
CA25 MX31/M0#g VDD#8 4.34129e-18
CA26 MX31/M0#g MX31/M0#d 1.15141e-17
CA27 MX31/M0#g VDD#14 4.19434e-18
CA28 A0 MX31/M0#d 6.22914e-18
CA29 A0 VDD 3.97789e-17
CA30 A0#13 B0#12 2.70492e-18
CA31 A0#13 B0#13 1.06885e-17
CA32 A0#12 B0#13 2.61067e-18
CA33 A0#12 B0#12 3.25309e-18
CA34 A0 A1#13 3.19135e-17
CA35 A0 A1#12 7.82575e-18
CA36 A0#13 A1#13 1.99039e-17
CA37 A0#12 A1#13 3.84179e-18
CA38 A0 A1 5.468e-17
RgA1 MX31/M0#g A0#8 465.977966 $L=1.45 $W=0.15
RgA2 A0#8 A0#9 38.857975 $L=0.1645 $W=0.27
RgA3 A0#9 A0#10 29.410927 $L=0.1645 $W=0.27
RgA4 A0#10 MX21/M0#g 212.124634 $L=0.66 $W=0.15
RfA5 A0#11 A0#12 3.388236 $L=0.045 $W=0.17
ReA6 A0 A0#13 0.163462 $L=0.34 $W=0.26
RjA7 A0#11 A0#13 152.000000 $A=0.0289
RiA8 A0#9 A0#12 15.000000 $A=0.0289
*
*|NET 23 6.4429e-16
*|I (MX32/M0#d MX32/M0 d X 0 2.3605 0.8000)
*|I (MX30/M0#d MX30/M0 d X 0 2.6395 0.8000)
*|I (MX29/M0#d MX29/M0 d X 0 3.2205 0.8000)
*|I (MX23/M0#d MX23/M0 d X 0 1.7795 0.8000)
*|S (23 1.6400 0.8000)
*|S (23#2 1.6400 0.8000)
*|S (23#3 1.6400 0.7550)
*|S (23#5 2.5000 0.8000)
*|S (23#6 2.5000 0.7550)
*|S (23#8 3.3600 0.8000)
*|S (23#9 3.3600 0.7550)
*|S (23#10 3.3600 0.7550)
*|S (23#11 2.5000 0.7550)
*|S (23#12 1.6400 0.7550)
CL1 23#12 VSS 5.28499e-18
CL2 23#11 VSS 5.13852e-18
CL3 23#10 VSS 2.95158e-17
CL4 23#3 VSS 4.56759e-18
CL5 23#6 VSS 8.06205e-18
CL6 23#9 VSS 9.82311e-18
CL7 23 VSS 1.25975e-18
CL8 23#6 VSS#2 7.24561e-18
CL9 23#10 VSS#2 9.66833e-18
CL10 23#6 VSS#11 5.09681e-18
CL11 23#10 VSS#11 3.48717e-17
CL12 23#12 MX22/M0#d 6.93256e-18
CL13 23#11 VSS#2 1.22256e-17
CL14 23#11 VSS#11 4.5988e-17
CL15 23#3 VSS#11 5.09681e-18
CL16 23#12 VSS#11 3.26995e-17
CL17 23#3 VSS#2 6.01853e-18
CL18 23#9 VSS#2 7.24561e-18
CL19 23#9 VSS#11 5.45886e-18
CL20 23#12 VSS#2 8.92782e-18
CL21 23#3 MX22/M0#d 1.53093e-17
RfL103 23#2 23#3 3.388236 $L=0.045 $W=0.17
RfL104 23#5 23#6 3.388236 $L=0.045 $W=0.17
RfL105 23#8 23#9 3.388236 $L=0.045 $W=0.17
ReL106 23#10 23#11 0.467391 $L=0.86 $W=0.23
ReL107 23#11 23#12 0.467391 $L=0.86 $W=0.23
RhL108 23 23#2 15.000000 $A=0.0289
RhL109 MX32/M0#d 23#5 15.000000 $A=0.0289
RhL110 MX29/M0#d 23#8 15.000000 $A=0.0289
RjL111 23#9 23#10 152.000000 $A=0.0289
RjL112 23#6 23#11 152.000000 $A=0.0289
RjL113 23#3 23#12 152.000000 $A=0.0289
RmwL114 MX30/M0#d MX32/M0#d 0.001000 $W=1000000
RmwL115 MX23/M0#d 23 0.001000 $W=1000000
*
*|NET 14 1.21733e-16
*|I (MX31/M0#s MX31/M0 s X 0 0.5505 3.2400)
*|I (MX18/M0#s MX18/M0 s X 0 0.8295 3.2400)
*|S (14 0.6900 3.2350)
CJ1 14 VSS 4.54954e-18
RmwJ88 MX31/M0#s 14 0.001000 $W=1000000
RmwJ89 MX18/M0#s 14 0.001000 $W=1000000
*
*|NET 16 1.27322e-16
*|I (MX33/M0#s MX33/M0 s X 0 2.2095 3.2400)
*|I (MX19/M0#s MX19/M0 s X 0 1.9305 3.2400)
*|S (16 2.0700 3.2350)
CJ2 16 VSS 1.24818e-17
RmwJ90 MX33/M0#s 16 0.001000 $W=1000000
RmwJ91 MX19/M0#s 16 0.001000 $W=1000000
*
*|NET 18 1.36192e-16
*|I (MX20/M0#s MX20/M0 s X 0 3.0695 3.2400)
*|I (MM0#d MM0 d X 0 2.7905 3.2400)
*|S (18 2.9300 3.2350)
CJ3 18 VSS 1.92563e-17
RmwJ92 MX20/M0#s 18 0.001000 $W=1000000
RmwJ93 MM0#d 18 0.001000 $W=1000000
*
*Instance Section
*
MX32/M0	MX32/M0#d	MX32/M0#g	MX32/M0#s	VSS	nfet_01v8
+ L=1.5e-07	W=4.2e-07
MX30/M0	MX30/M0#d	MX30/M0#g	MX30/M0#s	VSS	nfet_01v8
+ L=1.5e-07	W=4.2e-07
MX29/M0	MX29/M0#d	MX29/M0#g	MX29/M0#s	VSS	nfet_01v8
+ L=1.5e-07	W=4.2e-07
MX23/M0	MX23/M0#d	MX23/M0#g	MX23/M0#s	VSS	nfet_01v8
+ L=1.5e-07	W=4.2e-07
MX22/M0	MX22/M0#d	MX22/M0#g	MX22/M0#s	VSS	nfet_01v8
+ L=1.5e-07	W=4.2e-07
MX21/M0	MX21/M0#d	MX21/M0#g	MX21/M0#s	VSS	nfet_01v8
+ L=1.5e-07	W=4.2e-07
MX33/M0	MX33/M0#d	MX33/M0#g	MX33/M0#s	VDD	pfet_01v8_hvt
+ L=1.5e-07	W=6.2e-07
MX31/M0	MX31/M0#d	MX31/M0#g	MX31/M0#s	VDD	pfet_01v8_hvt
+ L=1.5e-07	W=6.2e-07
MX20/M0	MX20/M0#d	MX20/M0#g	MX20/M0#s	VDD	pfet_01v8_hvt
+ L=1.5e-07	W=6.2e-07
MX19/M0	MX19/M0#d	MX19/M0#g	MX19/M0#s	VDD	pfet_01v8_hvt
+ L=1.5e-07	W=6.2e-07
MX18/M0	MX18/M0#d	MX18/M0#g	MX18/M0#s	VDD	pfet_01v8_hvt
+ L=1.5e-07	W=6.2e-07
MM0	MM0#d	MM0#g	MM0#s	VDD	pfet_01v8_hvt	L=1.5e-07
+ W=6.2e-07
.ENDS
