*
*|DSPF 1.5
*
*|DATE "Fri Feb 28 12:41:38 2025"
*|VENDOR "Cadence Design Systems"
*|PROGRAM "Cadence Quantus Extraction"
*|VERSION "22.1.0-p089 Linux 64 bit - (Thu Jan 19 11:47:08 PST 2023)"
*|DESIGN "OAI211X1_LP"
*|DIVIDER /
*|DELIMITER #
*|DeviceFingerDelim "@"
*|BUSBIT []
*|GLOBAL_TEMPERATURE 25
*|OPERATING_TEMPERATURE 25
** QRC_TECH_DIR /vols/wfo_devel/projects/reference_SKY130/tech/sky130_release_0.0.4/quantus/extraction/typical 
** HIERARCHICAL_SPLIT_PINS_DELIMITER '%'
** caps2d version: 10
*
.SUBCKT  OAI211X1_LP A0 A1 B0 C0 VDD VSS Y
*
*Net Section
*
*|GROUND_NET VSS
*
*|NET VSS 7.95197e-16
*|P (VSS X 0 1.5250 0.0050)
*|I (MX17/M0#s MX17/M0 s X 0 0.8295 0.8000)
*|I (MX16/M0#s MX16/M0 s X 0 0.5505 0.8000)
*|S (VSS#1 1.3800 0.0000)
*|S (VSS#2 1.3800 0.0000)
*|S (VSS#4 0.6900 0.0000)
*|S (VSS#5 0.0000 0.0000)
*|S (VSS#7 0.6900 0.8000)
*|S (VSS#8 1.3800 0.0000)
RfF41 VSS#1 VSS#4 35.052811 $L=0.69 $W=0.25
RfF42 VSS#4 VSS#5 35.052811 $L=0.69 $W=0.25
RfF43 VSS#4 VSS#7 53.627445 $L=0.8 $W=0.17
ReF44 VSS VSS#8 0.045313 $L=0.145 $W=0.4
RhF45 MX17/M0#s VSS#7 15.000000 $A=0.0289
Rh_3_F46 VSS#2 VSS#1 3.000000 $A=0.1445
RjF47 VSS#1 VSS#8 30.400000 $A=0.1445
RmwF48 MX16/M0#s MX17/M0#s 0.001000 $W=1000000
*
*|NET A1 5.05928e-16
*|P (A1 X 0 0.9350 1.8800)
*|I (MX17/M0#g MX17/M0 g X 0 0.9050 0.8000)
*|I (MM0#g MM0 g X 0 0.9050 3.0950)
*|S (A1#8 0.9050 2.1400)
*|S (A1#9 0.9050 1.9750)
*|S (A1#10 0.9200 2.1400)
*|S (A1#11 0.9050 2.1400)
*|S (A1#12 0.9200 2.1400)
CB1 MX17/M0#g VSS 1.6289e-17
CB2 A1#12 VSS 2.89712e-18
CB3 A1#11 VSS 1.37725e-17
CB4 A1 VSS 1.31619e-17
CB5 A1#11 11 6.99993e-18
CB6 MM0#g 11 7.78368e-18
CB7 MX17/M0#g 1#8 1.74263e-18
CB8 MX17/M0#g 1#6 5.29095e-18
CB9 A1 1#8 2.5814e-17
CB10 A1#11 1#6 2.17782e-18
CB11 A1 1#6 3.24628e-18
CB12 A1#11 1#8 2.21778e-18
CB13 A1 Y#11 2.5828e-18
CB14 A1#11 Y#14 3.21292e-18
CB15 MM0#g Y#1 8.75958e-18
CB16 A1#12 Y#1 3.29219e-18
CB17 A1#12 Y#14 1.20955e-17
CB18 MM0#g Y#14 2.92783e-18
CB19 A1#11 Y#1 3.65175e-18
CB20 A1#11 MX17/M0#s 5.21692e-18
CB21 MX17/M0#g MX17/M0#s 6.22723e-18
CB22 MX17/M0#g VSS#4 4.29097e-18
CB23 MX17/M0#g VSS#8 2.7503e-18
CB24 MM0#g MX21/M0#s 2.17557e-18
CB25 A1#12 VDD#6 2.03783e-18
CB26 MM0#g MX20/M0#s 1.69309e-18
CB27 A1#12 VDD 2.32836e-17
CB28 MM0#g VDD 1.18938e-17
CB29 A1#11 VDD 1.06939e-17
CB30 MM0#g VDD#12 5.02656e-18
CB31 MM0#g VDD#4 4.79913e-18
CB32 A1#11 VDD#12 2.96582e-18
CB33 A1 B0#11 8.20391e-18
CB34 A1#12 B0 6.02911e-17
CB35 A1#11 B0 6.36046e-18
CB36 A1 B0 6.59783e-17
RgB8 MM0#g A1#8 288.032410 $L=0.955 $W=0.15
RgB9 A1#8 A1#9 34.134449 $L=0.1645 $W=0.27
RgB10 A1#9 MX17/M0#g 377.611298 $L=1.175 $W=0.15
RfB11 A1#10 A1#11 1.129412 $L=0.015 $W=0.17
ReB12 A1 A1#12 0.125000 $L=0.26 $W=0.26
RjB13 A1#10 A1#12 152.000000 $A=0.0289
RiB14 A1#8 A1#11 15.000000 $A=0.0289
*
*|NET 1 3.90269e-16
*|I (MX19/M0#s MX19/M0 s X 0 1.2595 0.8000)
*|I (MX17/M0#d MX17/M0 d X 0 0.9805 0.8000)
*|I (MX16/M0#d MX16/M0 d X 0 0.3995 0.8000)
*|S (1 0.2600 0.8000)
*|S (1#2 0.2600 0.8000)
*|S (1#3 0.2600 0.7550)
*|S (1#5 1.1200 0.8000)
*|S (1#6 1.1200 0.7550)
*|S (1#7 1.1200 0.7550)
*|S (1#8 1.0050 0.7725)
*|S (1#9 0.3745 0.7725)
*|S (1#10 0.2600 0.7550)
CH1 1#9 VSS 3.39469e-17
CH2 1#8 VSS 6.59981e-18
CH3 1#3 VSS 1.31924e-17
CH4 1#6 VSS 4.56421e-18
CH5 1#8 13 5.72369e-18
CH6 1#6 13 1.78615e-17
CH7 1#9 VSS#8 3.5111e-17
CH8 1#8 VSS#2 4.37236e-18
CH9 1#3 MX17/M0#s 1.88628e-17
CH10 1#9 VSS#5 3.48393e-18
CH11 1#8 VSS#4 3.0777e-18
CH12 1#8 MX17/M0#s 1.63758e-17
CH13 1#6 VSS#8 5.18149e-18
CH14 1#3 VSS#8 5.14706e-18
CH15 1#9 MX17/M0#s 1.74493e-17
CH16 1#3 VSS#5 4.62395e-18
CH17 1#9 VSS#4 3.86649e-18
CH18 1#6 VSS#2 6.01853e-18
CH19 1#6 MX17/M0#s 1.88636e-17
CH20 1#8 VSS#8 3.50586e-17
RfH65 1#2 1#3 3.388236 $L=0.045 $W=0.17
RfH66 1#5 1#6 3.388236 $L=0.045 $W=0.17
ReH67 1#7 1#8 0.051810 $L=0.1145 $W=0.325
ReH68 1#8 1#9 0.342584 $L=0.63 $W=0.23
ReH69 1#9 1#10 0.051810 $L=0.1145 $W=0.325
RhH70 1 1#2 15.000000 $A=0.0289
RhH71 MX19/M0#s 1#5 15.000000 $A=0.0289
RjH72 1#6 1#7 152.000000 $A=0.0289
RjH73 1#3 1#10 152.000000 $A=0.0289
RmwH74 MX17/M0#d MX19/M0#s 0.001000 $W=1000000
RmwH75 MX16/M0#d 1 0.001000 $W=1000000
*
*|NET C0 5.08864e-16
*|P (C0 X 0 1.8550 1.9150)
*|I (MX18/M0#g MX18/M0 g X 0 1.7650 0.8000)
*|I (MX15/M0#g MX15/M0 g X 0 1.7650 3.0950)
*|S (C0#8 1.7650 2.1400)
*|S (C0#9 1.7650 1.9750)
*|S (C0#10 1.8400 2.1400)
*|S (C0#11 1.7650 2.1400)
*|S (C0#12 1.8400 2.1400)
CD1 MX15/M0#g VSS 2.82644e-19
CD2 MX18/M0#g VSS 1.74704e-17
CD3 C0#12 VSS 1.6629e-17
CD4 C0#11 VSS 1.72734e-17
CD5 C0#11 13 3.95116e-18
CD6 MX18/M0#g 13 6.19835e-18
CD7 MX15/M0#g Y#1 2.12778e-18
CD8 MX18/M0#g Y#10 1.9163e-18
CD9 C0#12 Y#10 1.30427e-17
CD10 C0#11 Y#9 2.56316e-18
CD11 C0#11 Y#4 4.87513e-18
CD12 C0#12 Y#9 4.2839e-18
CD13 MX18/M0#g Y#9 6.90299e-18
CD14 C0#12 Y 1.06526e-16
CD15 C0#12 Y#11 1.63823e-17
CD16 MX15/M0#g Y#13 4.21338e-18
CD17 C0#12 Y#4 4.81292e-18
CD18 C0#12 Y#13 4.06018e-17
CD19 MX15/M0#g Y#4 1.13991e-17
CD20 C0#11 Y 7.53212e-18
CD21 C0#11 Y#13 5.28981e-18
CD22 MX18/M0#g VSS#2 5.74683e-18
CD23 C0#11 VSS#8 2.66781e-18
CD24 C0#12 VSS#8 6.81307e-18
CD25 MX18/M0#g VSS#8 3.64648e-18
CD26 MX15/M0#g VDD#12 1.91153e-18
CD27 C0#11 MX20/M0#s 7.20865e-18
CD28 MX15/M0#g VDD#4 3.58335e-18
CD29 MX15/M0#g VDD 9.8759e-18
CD30 MX15/M0#g MX20/M0#s 1.00667e-17
CD31 C0#12 VDD 1.22182e-17
CD32 C0#11 VDD 1.05496e-17
RgD22 MX15/M0#g C0#8 288.032410 $L=0.955 $W=0.15
RgD23 C0#8 C0#9 34.134449 $L=0.1645 $W=0.27
RgD24 C0#9 MX18/M0#g 377.611298 $L=1.175 $W=0.15
RfD25 C0#10 C0#11 5.647059 $L=0.075 $W=0.17
ReD26 C0 C0#12 0.108173 $L=0.225 $W=0.26
RjD27 C0#10 C0#12 152.000000 $A=0.0289
RiD28 C0#8 C0#11 15.000000 $A=0.0289
*
*|NET A0 4.12477e-16
*|P (A0 X 0 0.4750 1.7850)
*|I (MX16/M0#g MX16/M0 g X 0 0.4750 0.8000)
*|I (MX21/M0#g MX21/M0 g X 0 0.4750 3.0950)
*|S (A0#8 0.4750 1.6500)
*|S (A0#9 0.4750 1.4850)
*|S (A0#10 0.4750 1.6500)
*|S (A0#11 0.4600 1.6500)
*|S (A0#12 0.4600 1.6500)
CA1 MX21/M0#g VSS 2.35685e-18
CA2 MX16/M0#g VSS 1.45842e-17
CA3 A0#12 VSS 3.5709e-17
CA4 A0#11 VSS 2.45011e-17
CA5 A0 VSS 1.72285e-17
CA6 A0#11 11 3.567e-18
CA7 MX21/M0#g 11 9.14995e-18
CA8 A0#11 1#3 3.93458e-18
CA9 A0#12 1#3 3.42789e-18
CA10 A0#12 1#9 3.61571e-17
CA11 MX16/M0#g 1#9 1.95333e-18
CA12 MX16/M0#g 1#3 6.89738e-18
CA13 A0#11 1#9 3.8563e-18
CA14 MX16/M0#g VSS#8 2.7503e-18
CA15 A0#11 MX17/M0#s 6.61853e-18
CA16 MX16/M0#g VSS#4 4.29097e-18
CA17 MX16/M0#g MX17/M0#s 7.13707e-18
CA18 MX21/M0#g VDD#6 3.58335e-18
CA19 A0#11 MX21/M0#s 2.46786e-18
CA20 MX21/M0#g MX21/M0#s 1.15141e-17
CA21 MX21/M0#g VDD 1.20345e-17
CA22 A0 VDD#6 3.09541e-18
CA23 A0 VDD 3.89306e-17
CA24 MX21/M0#g VDD#12 5.02656e-18
CA25 A0#11 VDD#12 2.38656e-18
CA26 A0 MX21/M0#s 5.19493e-18
CA27 A0#11 A1 6.32968e-18
CA28 A0#12 A1 4.23203e-17
CA29 A0 A1#12 5.72621e-17
CA30 A0 A1#11 1.03325e-17
CA31 A0 A1 2.78786e-17
RgA1 MX21/M0#g A0#8 445.485748 $L=1.445 $W=0.15
RgA2 A0#8 A0#9 34.134449 $L=0.1645 $W=0.27
RgA3 A0#9 MX16/M0#g 220.157959 $L=0.685 $W=0.15
RfA4 A0#10 A0#11 1.129412 $L=0.015 $W=0.17
ReA5 A0 A0#12 0.064904 $L=0.135 $W=0.26
RjA6 A0#11 A0#12 152.000000 $A=0.0289
RiA7 A0#8 A0#10 15.000000 $A=0.0289
*
*|NET 11 1.25094e-16
*|I (MX21/M0#d MX21/M0 d X 0 0.5505 3.0950)
*|I (MM0#s MM0 s X 0 0.8295 3.0950)
*|S (11 0.6900 2.9850)
CI1 11 VSS 3.82876e-18
RmwI76 MX21/M0#d 11 0.001000 $W=1000000
RmwI77 MM0#s 11 0.001000 $W=1000000
*
*|NET 13 9.31077e-17
*|I (MX19/M0#d MX19/M0 d X 0 1.4105 0.8000)
*|I (MX18/M0#s MX18/M0 s X 0 1.6895 0.8000)
*|S (13 1.5500 0.8000)
CI2 13 VSS 2.51196e-18
CI3 13 VSS#2 7.24561e-18
CI4 13 VSS#8 8.19604e-18
RmwI78 MX19/M0#d 13 0.001000 $W=1000000
RmwI79 MX18/M0#s 13 0.001000 $W=1000000
*
*|NET Y 9.51405e-16
*|P (Y X 0 2.3150 2.0050)
*|I (MX18/M0#d MX18/M0 d X 0 1.8405 0.8000)
*|I (MX20/M0#d MX20/M0 d X 0 1.2595 3.0950)
*|I (MX15/M0#d MX15/M0 d X 0 1.8405 3.0950)
*|I (MM0#d MM0 d X 0 0.9805 3.0950)
*|S (Y#1 1.1200 3.1900)
*|S (Y#3 1.1200 3.0950)
*|S (Y#4 1.9800 3.2050)
*|S (Y#6 1.9800 3.0950)
*|S (Y#8 1.9800 0.8000)
*|S (Y#9 1.9800 0.7550)
*|S (Y#10 1.9800 0.7550)
*|S (Y#11 2.3000 0.7575)
*|S (Y#12 1.9800 3.2050)
*|S (Y#13 1.8650 2.9950)
*|S (Y#14 1.2495 2.9950)
*|S (Y#15 1.1200 3.1900)
CG1 Y#14 VSS 6.55618e-18
CG2 Y#13 VSS 4.75291e-18
CG3 Y#10 VSS 5.87059e-18
CG4 Y#11 VSS 5.89381e-17
CG5 Y#1 VSS 2.35685e-18
CG6 Y#9 VSS 6.29685e-18
CG7 Y VSS 3.48473e-17
CG8 Y#1 11 3.03361e-17
CG9 Y#13 13 1.18605e-18
CG10 Y#9 13 1.78599e-17
CG11 Y#10 13 6.68359e-18
CG12 Y#11 13 1.22465e-18
CG13 Y#14 11 1.20742e-17
CG14 Y#1 1#8 1.68857e-18
CG15 Y#9 1#8 1.60237e-18
CG16 Y#10 1#6 1.41612e-18
CG17 Y#10 1#8 1.28786e-17
CG18 Y#11 VSS#8 2.29125e-17
CG19 Y#10 VSS#8 2.14819e-17
CG20 Y#11 VSS#2 7.018e-18
CG21 Y#9 VSS#8 5.29817e-18
CG22 Y#10 VSS#2 5.63449e-18
CG23 Y#9 VSS#2 7.24561e-18
RfG49 Y#1 Y#3 7.152941 $L=0.095 $W=0.17
RfG50 Y#4 Y#6 8.282353 $L=0.11 $W=0.17
RfG51 Y#8 Y#9 3.388236 $L=0.045 $W=0.17
ReG52 Y#10 Y#11 0.115610 $L=0.32 $W=0.295
ReG53 Y#11 Y 0.563948 $L=1.2475 $W=0.26
ReG54 Y Y#12 0.540977 $L=1.31 $W=0.26
ReG55 Y#12 Y#13 0.038209 $L=0.1145 $W=0.665
ReG56 Y#13 Y#14 0.295768 $L=0.615 $W=0.26
ReG57 Y#14 Y#15 0.043548 $L=0.1295 $W=0.65
RhG58 MX18/M0#d Y#8 15.000000 $A=0.0289
Rh_2_G59 MX20/M0#d Y#3 15.000000 $A=0.0289
Rh_2_G60 MX15/M0#d Y#6 15.000000 $A=0.0289
RjG61 Y#9 Y#10 152.000000 $A=0.0289
RjG62 Y#4 Y#12 76.000000 $A=0.0578
RjG63 Y#1 Y#15 76.000000 $A=0.0578
RmwG64 MM0#d MX20/M0#d 0.001000 $W=1000000
*
*|NET VDD 6.69382e-16
*|P (VDD X 0 1.5250 4.1450)
*|I (MX21/M0#s MX21/M0 s X 0 0.3995 3.0950)
*|I (MX20/M0#s MX20/M0 s X 0 1.4105 3.0950)
*|I (MX15/M0#s MX15/M0 s X 0 1.6895 3.0950)
*|S (VDD#1 2.7595 4.1400)
*|S (VDD#2 1.5500 4.1400)
*|S (VDD#3 1.3800 4.1400)
*|S (VDD#4 1.3800 4.1400)
*|S (VDD#6 0.1725 4.1400)
*|S (VDD#7 0.2600 4.0150)
*|S (VDD#9 0.2600 3.0950)
*|S (VDD#11 1.5500 3.0950)
*|S (VDD#12 1.3800 4.1400)
CE1 MX20/M0#s VSS 1.00129e-18
CE2 MX21/M0#s VSS 1.83618e-18
CE3 VDD#12 VSS 1.87285e-18
CE4 VDD#6 VSS 2.4565e-19
CE5 VDD#4 VSS 4.2192e-18
CE6 VDD VSS 1.42739e-18
CE7 VDD 11 7.20873e-19
CE8 VDD#6 11 5.00882e-18
CE9 VDD#12 11 8.34732e-18
CE10 MX21/M0#s 11 3.72772e-17
CE11 MX20/M0#s Y#4 3.33133e-17
CE12 MX20/M0#s Y#14 2.34219e-17
CE13 VDD Y#1 5.80205e-18
CE14 VDD#4 Y#4 6.97198e-18
CE15 VDD#4 Y#13 7.77565e-18
CE16 MX21/M0#s Y#14 9.24073e-18
CE17 VDD#4 Y#14 7.61425e-18
CE18 VDD#12 Y#14 3.05375e-17
CE19 VDD Y#4 1.13926e-17
CE20 VDD Y 2.20592e-17
CE21 VDD#12 Y#13 4.11157e-17
CE22 VDD#12 Y#4 5.67288e-18
CE23 VDD#12 Y#1 5.65607e-18
CE24 VDD#4 Y#1 6.71072e-18
CE25 MX20/M0#s Y#13 2.29473e-17
CE26 MX21/M0#s Y#1 3.44339e-18
CE27 VDD Y#14 4.68425e-18
CE28 MX20/M0#s Y#1 3.22344e-17
CE29 VDD#1 Y#13 3.66836e-18
CE30 VDD Y#13 7.18917e-17
RfE29 VDD#1 VDD#2 61.651215 $L=1.2095 $W=0.25
RfE30 VDD#2 VDD#3 8.428811 $L=0.17 $W=0.25
RfE31 VDD#3 VDD#6 56.687717 $L=1.2075 $W=0.25
RfE32 VDD#6 VDD#7 3.709770 $L=0.1245 $W=0.345
RfE33 VDD#7 VDD#9 69.279861 $L=0.92 $W=0.17
RfE34 VDD#2 VDD#11 72.074501 $L=1.045 $W=0.17
ReE35 VDD VDD#12 0.045313 $L=0.145 $W=0.4
Rh_1_E36 VDD#4 VDD#3 3.000000 $A=0.1445
Rh_2_E37 MX21/M0#s VDD#9 15.000000 $A=0.0289
Rh_2_E38 MX20/M0#s VDD#11 15.000000 $A=0.0289
RjE39 VDD#3 VDD#12 30.400000 $A=0.1445
RmwE40 MX15/M0#s MX20/M0#s 0.001000 $W=1000000
*
*|NET B0 4.96834e-16
*|P (B0 X 0 1.3950 1.9050)
*|I (MX19/M0#g MX19/M0 g X 0 1.3350 0.8000)
*|I (MX20/M0#g MX20/M0 g X 0 1.3350 3.0950)
*|S (B0#8 1.3350 1.6500)
*|S (B0#9 1.3350 1.4850)
*|S (B0#10 1.3800 1.6500)
*|S (B0#11 1.3350 1.6500)
*|S (B0#12 1.3800 1.6500)
CC1 MX20/M0#g VSS 2.01579e-18
CC2 MX19/M0#g VSS 2.13974e-17
CC3 B0#11 VSS 2.53346e-17
CC4 B0 VSS 1.0275e-17
CC5 MX19/M0#g 13 5.27282e-18
CC6 B0#11 13 4.78156e-18
CC7 B0 13 4.41077e-18
CC8 MX19/M0#g 1#6 5.29095e-18
CC9 B0#11 1#8 5.25061e-18
CC10 B0#11 1#6 6.04446e-18
CC11 MX20/M0#g Y#4 2.01136e-18
CC12 B0#11 Y 1.70632e-18
CC13 MX20/M0#g Y#1 8.75958e-18
CC14 B0 Y#14 2.17319e-17
CC15 B0 Y#11 3.32074e-18
CC16 MX20/M0#g Y#14 3.47729e-18
CC17 B0#11 Y#1 4.71868e-18
CC18 B0#11 Y#14 4.37348e-18
CC19 MX19/M0#g VSS#8 3.81029e-18
CC20 MX19/M0#g VSS#2 5.74683e-18
CC21 B0 VSS#2 3.57216e-18
CC22 B0 VSS#8 1.21138e-17
CC23 B0#11 VSS#8 3.22831e-18
CC24 MX20/M0#g VDD#12 1.76373e-18
CC25 MX20/M0#g MX20/M0#s 8.73977e-18
CC26 MX20/M0#g VDD 1.10433e-17
CC27 B0 MX20/M0#s 5.38905e-18
CC28 B0 VDD 1.4002e-17
CC29 MX20/M0#g VDD#4 3.58335e-18
CC30 B0#11 MX20/M0#s 2.53264e-18
CC31 B0#11 C0#12 6.84041e-18
CC32 B0 C0#11 8.21166e-18
CC33 B0 C0#12 1.2525e-16
RgC15 MX20/M0#g B0#8 445.485748 $L=1.445 $W=0.15
RgC16 B0#8 B0#9 34.134449 $L=0.1645 $W=0.27
RgC17 B0#9 MX19/M0#g 220.157959 $L=0.685 $W=0.15
RfC18 B0#10 B0#11 3.388236 $L=0.045 $W=0.17
ReC19 B0 B0#12 0.122596 $L=0.255 $W=0.26
RjC20 B0#10 B0#12 152.000000 $A=0.0289
RiC21 B0#8 B0#11 15.000000 $A=0.0289
*
*Instance Section
*
MX19/M0	MX19/M0#d	MX19/M0#g	MX19/M0#s	VSS	nfet_01v8
+ L=1.5e-07	W=4.2e-07
MX18/M0	MX18/M0#d	MX18/M0#g	MX18/M0#s	VSS	nfet_01v8
+ L=1.5e-07	W=4.2e-07
MX17/M0	MX17/M0#d	MX17/M0#g	MX17/M0#s	VSS	nfet_01v8
+ L=1.5e-07	W=4.2e-07
MX16/M0	MX16/M0#d	MX16/M0#g	MX16/M0#s	VSS	nfet_01v8
+ L=1.5e-07	W=4.2e-07
MX21/M0	MX21/M0#d	MX21/M0#g	MX21/M0#s	VDD	pfet_01v8_hvt
+ L=1.5e-07	W=6.2e-07
MX20/M0	MX20/M0#d	MX20/M0#g	MX20/M0#s	VDD	pfet_01v8_hvt
+ L=1.5e-07	W=6.2e-07
MX15/M0	MX15/M0#d	MX15/M0#g	MX15/M0#s	VDD	pfet_01v8_hvt
+ L=1.5e-07	W=6.2e-07
MM0	MM0#d	MM0#g	MM0#s	VDD	pfet_01v8_hvt	L=1.5e-07
+ W=6.2e-07
.ENDS
