*
*|DSPF 1.5
*
*|DATE "Fri Feb 28 12:34:07 2025"
*|VENDOR "Cadence Design Systems"
*|PROGRAM "Cadence Quantus Extraction"
*|VERSION "22.1.0-p089 Linux 64 bit - (Thu Jan 19 11:47:08 PST 2023)"
*|DESIGN "OAI222X2_LP"
*|DIVIDER /
*|DELIMITER #
*|DeviceFingerDelim "@"
*|BUSBIT []
*|GLOBAL_TEMPERATURE 25
*|OPERATING_TEMPERATURE 25
** QRC_TECH_DIR /vols/wfo_devel/projects/reference_SKY130/tech/sky130_release_0.0.4/quantus/extraction/typical 
** HIERARCHICAL_SPLIT_PINS_DELIMITER '%'
** caps2d version: 10
*
.SUBCKT  OAI222X2_LP A0 A1 B0 B1 C0 C1 VDD VSS Y
*
*Net Section
*
*|GROUND_NET VSS
*
*|NET C1 6.53573e-16
*|P (C1 X 0 2.3150 1.9700)
*|I (MX30/M0#g MX30/M0 g X 0 2.7150 0.9300)
*|I (MM0#g MM0 g X 0 2.7150 3.0400)
*|S (C1#8 2.7050 1.6250)
*|S (C1#9 2.7050 1.4600)
*|S (C1#10 2.7050 1.6250)
*|S (C1#11 2.3000 1.6250)
*|S (C1#12 2.3000 1.6250)
CF1 MM0#g VSS 3.76385e-19
CF2 MX30/M0#g VSS 1.83128e-17
CF3 C1#12 VSS 1.05745e-17
CF4 C1#10 VSS 2.20813e-17
CF5 C1#11 VSS 1.22377e-17
CF6 C1 VSS 5.83308e-18
CF7 MX30/M0#g 21#9 2.83561e-18
CF8 C1#11 21#11 2.60192e-18
CF9 C1#12 21#6 5.20816e-18
CF10 C1#11 21#6 1.1656e-17
CF11 C1#12 21#11 1.30122e-17
CF12 C1#10 21#6 1.23832e-17
CF13 MX30/M0#g 21#6 1.05758e-17
CF14 MX30/M0#g MX33/M0#s 2.12457e-18
CF15 C1#10 18 2.73463e-18
CF16 MM0#g 18 1.51271e-17
CF17 C1#12 20#7 1.97976e-17
CF18 C1#11 MX33/M0#s 1.27474e-17
CF19 C1 16 7.78466e-18
CF20 MM0#g 16 2.97923e-18
CF21 MM0#g Y 1.70212e-18
CF22 MM0#g Y#13 1.38972e-18
CF23 C1#12 Y#10 4.015e-17
CF24 C1 MX32/M0#d 1.32686e-17
CF25 MM0#g MX32/M0#d 1.60543e-17
CF26 MX30/M0#g MX30/M0#s 1.05758e-17
CF27 C1 Y#13 1.39514e-17
CF28 C1#12 Y 9.57278e-18
CF29 C1#10 Y#10 2.71049e-17
CF30 C1 Y 7.88677e-17
CF31 C1#10 MX30/M0#s 1.32923e-17
CF32 C1#10 MX32/M0#d 4.17818e-18
CF33 MX30/M0#g VSS#11 3.45211e-18
CF34 MX30/M0#g VSS#2 6.79271e-18
CF35 C1 VDD 1.59295e-18
CF36 MM0#g MX25/M0#d 4.82471e-18
CF37 MM0#g VDD 1.65962e-17
CF38 MM0#g VDD#3 7.17149e-18
CF39 MM0#g VDD#14 3.48283e-18
RgF40 MM0#g C1#8 435.845734 $L=1.415 $W=0.15
RgF41 C1#8 C1#9 34.134449 $L=0.1645 $W=0.27
RgF42 C1#9 MX30/M0#g 170.351288 $L=0.53 $W=0.15
RfF43 C1#10 C1#11 30.494118 $L=0.405 $W=0.17
ReF44 C1 C1#12 0.165865 $L=0.345 $W=0.26
RjF45 C1#11 C1#12 152.000000 $A=0.0289
RiF46 C1#8 C1#10 15.000000 $A=0.0289
*
*|NET B0 6.06953e-16
*|P (B0 X 0 1.3950 1.9850)
*|I (MX27/M0#g MX27/M0 g X 0 1.8550 0.9300)
*|I (MX24/M0#g MX24/M0 g X 0 1.8550 3.0400)
*|S (B0#8 1.7950 1.7895)
*|S (B0#9 1.7950 1.6250)
*|S (B0#10 1.7950 1.4600)
*|S (B0#11 1.7950 1.6250)
*|S (B0#12 1.3800 1.6250)
*|S (B0#13 1.3800 1.6250)
CC1 MX24/M0#g VSS 1.96846e-18
CC2 MX27/M0#g VSS 1.77302e-17
CC3 B0#13 VSS 4.49784e-18
CC4 B0#11 VSS 7.90485e-18
CC5 B0#12 VSS 1.53546e-17
CC6 B0 VSS 4.33087e-18
CC7 MX27/M0#g 21#6 2.10569e-18
CC8 B0#11 21#3 1.59578e-17
CC9 MX27/M0#g 21#3 1.21415e-17
CC10 B0#12 21#3 8.37809e-18
CC11 B0#12 20#7 2.96204e-18
CC12 B0#12 20#8 4.10556e-18
CC13 B0#11 20#7 6.17017e-18
CC14 MX27/M0#g MX33/M0#s 1.10677e-17
CC15 B0#13 20#8 2.09468e-17
CC16 B0#13 20#7 2.08099e-17
CC17 MX24/M0#g 16 1.58166e-17
CC18 MX24/M0#g Y#13 2.23914e-18
CC19 B0 MX23/M0#d 6.81141e-18
CC20 MX24/M0#g MX32/M0#d 3.77242e-18
CC21 MX24/M0#g MX23/M0#d 4.82006e-18
CC22 B0 Y#15 1.4523e-17
CC23 MX27/M0#g MX26/M0#d 3.46194e-18
CC24 MX27/M0#g VSS#11 3.45211e-18
CC25 B0#12 VSS#11 3.07245e-18
CC26 MX27/M0#g VSS#2 6.79271e-18
CC27 B0#12 MX24/M0#d 1.98302e-18
CC28 B0#11 MX24/M0#d 1.52638e-18
CC29 MX24/M0#g MX24/M0#d 1.96598e-17
CC30 B0 MX24/M0#d 6.81141e-18
CC31 MX24/M0#g VDD#7 5.35471e-18
CC32 MX24/M0#g VDD 1.27536e-17
CC33 MX24/M0#g VDD#14 3.08336e-18
CC34 B0 VDD 7.67348e-18
CC35 B0#11 C1#11 1.30382e-17
CC36 B0#11 C1#12 3.91843e-18
CC37 B0#13 C1#12 6.26246e-18
CC38 B0#11 B1#12 1.71289e-17
CC39 B0 B1#12 8.36343e-17
CC40 MX24/M0#g B1#11 5.37045e-18
CC41 B0#11 B1#11 1.48626e-17
CC42 B0#13 B1#12 2.90723e-17
CC43 B0 B1#11 5.53061e-18
RgC17 MX24/M0#g B0#8 401.711273 $L=1.25 $W=0.15
RgC18 B0#8 B0#9 38.857975 $L=0.1645 $W=0.27
RgC19 B0#9 B0#10 29.410927 $L=0.1645 $W=0.27
RgC20 B0#10 MX27/M0#g 170.351288 $L=0.53 $W=0.15
RfC21 B0#11 B0#12 31.247059 $L=0.415 $W=0.17
ReC22 B0 B0#13 0.173077 $L=0.36 $W=0.26
RjC23 B0#12 B0#13 152.000000 $A=0.0289
RiC24 B0#9 B0#11 15.000000 $A=0.0289
*
*|NET A1 5.8248e-16
*|P (A1 X 0 0.9350 2.2800)
*|I (MX26/M0#g MX26/M0 g X 0 0.9050 0.9300)
*|I (MX23/M0#g MX23/M0 g X 0 0.9050 3.0400)
*|S (A1#8 0.9650 2.3095)
*|S (A1#9 0.9650 2.1450)
*|S (A1#10 0.9650 1.9800)
*|S (A1#11 0.9650 2.1450)
*|S (A1#12 0.9200 2.1450)
*|S (A1#13 0.9200 2.1450)
CB1 MX23/M0#g VSS 3.81738e-18
CB2 MX26/M0#g VSS 1.88795e-17
CB3 A1#13 VSS 6.35909e-18
CB4 A1#12 VSS 7.40954e-18
CB5 A1 VSS 6.53996e-18
CB6 A1#12 20#8 4.24713e-18
CB7 MX26/M0#g 20#8 2.93219e-18
CB8 A1#12 MX28/M0#s 4.01564e-18
CB9 MX26/M0#g MX28/M0#s 1.11152e-17
CB10 A1#13 20#8 1.86342e-17
CB11 MX23/M0#g 14 1.58424e-17
CB12 A1 14 2.5343e-17
CB13 A1#12 14 1.3078e-17
CB14 A1#12 Y#15 3.6961e-18
CB15 A1#12 MX23/M0#d 2.37129e-17
CB16 A1 Y#15 8.10147e-18
CB17 MX23/M0#g MX23/M0#d 1.82759e-17
CB18 A1 MX23/M0#d 2.66208e-17
CB19 MX26/M0#g MX28/M0#d 2.8609e-18
CB20 MX26/M0#g VSS#4 5.07189e-18
CB21 MX26/M0#g MX26/M0#d 1.32819e-17
CB22 A1#13 MX26/M0#d 2.9597e-18
CB23 A1#12 MX26/M0#d 5.00427e-18
CB24 MX26/M0#g VSS#11 4.53236e-18
CB25 MX23/M0#g VDD#7 2.48612e-18
CB26 A1 VDD#8 2.22303e-18
CB27 A1#12 VDD#14 2.2182e-18
CB28 MX23/M0#g VDD#14 4.71511e-18
CB29 A1 VDD#14 9.78929e-18
CB30 MX23/M0#g VDD 1.52308e-17
CB31 MX23/M0#g MX31/M0#d 5.33015e-18
CB32 A1 MX24/M0#d 4.51618e-18
CB33 A1#12 VDD 9.4952e-18
CB34 MX23/M0#g VDD#8 4.66147e-18
CB35 MX23/M0#g MX24/M0#d 5.13505e-18
CB36 A1 MX31/M0#d 5.51333e-18
CB37 A1#12 B1#11 5.6897e-18
CB38 A1 B1#12 8.8622e-18
CB39 A1#12 B0#12 7.72941e-18
CB40 A1#13 B0#12 3.6457e-18
CB41 A1#13 B0#13 2.11341e-17
CB42 A1#12 B0 1.33254e-17
CB43 A1#13 B0 3.02776e-17
CB44 A1 B0 5.27253e-17
RgB9 MX23/M0#g A1#8 234.617950 $L=0.73 $W=0.15
RgB10 A1#8 A1#9 38.857975 $L=0.1645 $W=0.27
RgB11 A1#9 A1#10 29.410927 $L=0.1645 $W=0.27
RgB12 A1#10 MX26/M0#g 337.444611 $L=1.05 $W=0.15
RfB13 A1#11 A1#12 3.388236 $L=0.045 $W=0.17
ReB14 A1 A1#13 0.064904 $L=0.135 $W=0.26
RjB15 A1#12 A1#13 152.000000 $A=0.0289
RiB16 A1#9 A1#11 15.000000 $A=0.0289
*
*|NET VDD 1.02472e-15
*|P (VDD X 0 2.4150 4.1450)
*|I (MX31/M0#d MX31/M0 d X 0 0.3995 3.0400)
*|I (MX25/M0#d MX25/M0 d X 0 3.2205 3.0400)
*|I (MX24/M0#d MX24/M0 d X 0 1.7795 3.0400)
*|S (VDD#2 3.3600 3.0400)
*|S (VDD#3 3.4775 4.1400)
*|S (VDD#4 1.8400 4.1400)
*|S (VDD#5 1.8400 4.1400)
*|S (VDD#7 1.6400 4.1400)
*|S (VDD#8 0.1725 4.1400)
*|S (VDD#9 0.2600 4.0150)
*|S (VDD#11 0.2600 3.0400)
*|S (VDD#13 1.6400 3.0400)
*|S (VDD#14 1.8400 4.1400)
CG1 MX24/M0#d VSS 3.67164e-18
CG2 MX25/M0#d VSS 1.30615e-18
CG3 MX31/M0#d VSS 1.52391e-19
CG4 VDD#14 VSS 6.35911e-18
CG5 VDD#8 VSS 8.00133e-19
CG6 VDD#7 VSS 4.40284e-18
CG7 VDD#3 VSS 3.88645e-18
CG8 VDD VSS 7.66522e-18
CG9 VDD#14 18 5.92196e-18
CG10 VDD#3 18 4.88855e-18
CG11 MX25/M0#d 18 5.40395e-17
CG12 MX31/M0#d 14 5.78805e-17
CG13 VDD#14 16 5.04873e-18
CG14 VDD#7 16 4.27982e-18
CG15 VDD#8 14 4.88855e-18
CG16 MX24/M0#d 16 4.88942e-17
CG17 VDD#14 14 8.38526e-18
CG18 VDD Y#15 5.04904e-18
CG19 MX31/M0#d Y#15 4.16804e-18
CG20 MX24/M0#d MX32/M0#d 3.85229e-18
CG21 MX31/M0#d MX23/M0#d 3.85229e-18
CG22 MX25/M0#d MX32/M0#d 3.85229e-18
CG23 VDD Y#10 2.78632e-18
CG24 MX25/M0#d Y 2.42814e-18
CG25 MX24/M0#d Y#13 1.79954e-18
CG26 VDD#7 MX32/M0#d 1.04856e-17
CG27 VDD#3 Y#13 5.34367e-18
CG28 MX25/M0#d Y#13 1.14005e-17
CG29 MX24/M0#d MX23/M0#d 4.29368e-17
CG30 VDD#14 Y#15 4.8556e-17
CG31 MX24/M0#d Y#15 3.44158e-17
CG32 VDD#14 MX23/M0#d 5.47219e-18
CG33 VDD#14 Y#13 6.93687e-17
CG34 VDD#7 MX23/M0#d 8.10108e-18
CG35 VDD#14 MX32/M0#d 5.64132e-18
CG36 VDD#7 Y#13 1.12783e-17
CG37 VDD#7 Y#15 9.2497e-18
RfG47 VDD#2 VDD#3 81.667908 $L=1.1 $W=0.17
RfG48 VDD#3 VDD#4 77.314651 $L=1.6375 $W=0.25
RfG49 VDD#4 VDD#7 9.964811 $L=0.2 $W=0.25
RfG50 VDD#7 VDD#8 69.724533 $L=1.4675 $W=0.25
RfG51 VDD#8 VDD#9 3.709770 $L=0.1245 $W=0.345
RfG52 VDD#9 VDD#11 73.421043 $L=0.975 $W=0.17
RfG53 VDD#7 VDD#13 76.215675 $L=1.1 $W=0.17
ReG54 VDD VDD#14 0.179688 $L=0.575 $W=0.4
Rh_1_G55 VDD#5 VDD#4 2.142857 $A=0.2023
Rh_2_G56 MX25/M0#d VDD#2 5.000000 $A=0.0867
Rh_2_G57 MX31/M0#d VDD#11 5.000000 $A=0.0867
Rh_2_G58 MX24/M0#d VDD#13 5.000000 $A=0.0867
RjG59 VDD#4 VDD#14 21.714285 $A=0.2023
*
*|NET A0 4.91908e-16
*|P (A0 X 0 0.4750 1.9650)
*|I (MX28/M0#g MX28/M0 g X 0 0.4750 0.9300)
*|I (MX31/M0#g MX31/M0 g X 0 0.4750 3.0400)
*|S (A0#8 0.4150 1.7895)
*|S (A0#9 0.4150 1.6250)
*|S (A0#10 0.4150 1.4600)
*|S (A0#11 0.4600 1.6250)
*|S (A0#12 0.4150 1.6250)
*|S (A0#13 0.4600 1.6250)
CA1 MX31/M0#g VSS 5.50304e-18
CA2 MX28/M0#g VSS 1.32753e-17
CA3 A0#13 VSS 2.999e-17
CA4 A0#12 VSS 2.51121e-17
CA5 A0 VSS 1.26719e-17
CA6 A0#12 MX28/M0#s 1.3078e-17
CA7 A0#12 20#8 2.60352e-18
CA8 MX28/M0#g 20#8 3.90413e-18
CA9 A0#13 20#8 2.83028e-17
CA10 MX28/M0#g MX28/M0#s 1.22286e-17
CA11 A0#12 14 4.07335e-18
CA12 MX31/M0#g 14 1.75634e-17
CA13 A0 14 8.85688e-18
CA14 MX28/M0#g MX26/M0#d 2.90027e-18
CA15 A0#13 VSS#11 6.83037e-18
CA16 MX28/M0#g VSS#11 4.24566e-18
CA17 MX28/M0#g MX28/M0#d 1.51589e-17
CA18 A0#12 MX28/M0#d 2.61867e-17
CA19 MX28/M0#g VSS#5 5.07189e-18
CA20 A0#13 MX28/M0#d 6.13335e-18
CA21 A0#12 VSS#11 4.27081e-18
CA22 A0 VDD#8 2.29153e-18
CA23 MX31/M0#g VDD 1.41863e-17
CA24 A0 MX31/M0#d 2.33255e-17
CA25 A0#12 MX31/M0#d 6.24093e-18
CA26 A0 VDD 2.41737e-17
CA27 MX31/M0#g VDD#8 5.35471e-18
CA28 A0 VDD#14 6.2115e-18
CA29 MX31/M0#g MX31/M0#d 2.26347e-17
CA30 MX31/M0#g VDD#14 4.8258e-18
CA31 A0#13 B0#12 2.70492e-18
CA32 A0#13 B0#13 1.06885e-17
CA33 A0#12 B0#13 2.61067e-18
CA34 A0#12 B0#12 3.25309e-18
CA35 A0#13 A1#13 1.99039e-17
CA36 A0 A1#13 3.19135e-17
CA37 A0 A1#12 7.82575e-18
CA38 A0#12 A1#13 3.84179e-18
CA39 A0 A1 5.19602e-17
RgA1 MX31/M0#g A0#8 401.711273 $L=1.25 $W=0.15
RgA2 A0#8 A0#9 38.857975 $L=0.1645 $W=0.27
RgA3 A0#9 A0#10 29.410927 $L=0.1645 $W=0.27
RgA4 A0#10 MX28/M0#g 170.351288 $L=0.53 $W=0.15
RfA5 A0#11 A0#12 3.388236 $L=0.045 $W=0.17
ReA6 A0 A0#13 0.163462 $L=0.34 $W=0.26
RjA7 A0#11 A0#13 152.000000 $A=0.0289
RiA8 A0#9 A0#12 15.000000 $A=0.0289
*
*|NET VSS 1.15637e-15
*|P (VSS X 0 2.4150 0.0050)
*|I (MX28/M0#d MX28/M0 d X 0 0.3995 0.9300)
*|I (MX26/M0#d MX26/M0 d X 0 0.9805 0.9300)
*|S (VSS#1 1.8400 0.0000)
*|S (VSS#2 1.8400 0.0000)
*|S (VSS#4 1.1200 0.0000)
*|S (VSS#5 0.1725 0.0000)
*|S (VSS#6 0.2600 0.1245)
*|S (VSS#8 0.2600 0.9300)
*|S (VSS#10 1.1200 0.9300)
*|S (VSS#11 1.8400 0.0000)
RfH60 VSS#1 VSS#4 36.588810 $L=0.72 $W=0.25
RfH61 VSS#4 VSS#5 43.100529 $L=0.9475 $W=0.25
RfH62 VSS#5 VSS#6 3.709770 $L=0.1245 $W=0.345
RfH63 VSS#6 VSS#8 60.621040 $L=0.805 $W=0.17
RfH64 VSS#4 VSS#10 63.415680 $L=0.93 $W=0.17
ReH65 VSS VSS#11 0.179688 $L=0.575 $W=0.4
RhH66 MX28/M0#d VSS#8 7.500000 $A=0.0578
RhH67 MX26/M0#d VSS#10 7.500000 $A=0.0578
Rh_3_H68 VSS#2 VSS#1 2.142857 $A=0.2023
RjH69 VSS#1 VSS#11 21.714285 $A=0.2023
*
*|NET B1 6.46727e-16
*|P (B1 X 0 1.8550 2.1750)
*|I (MX33/M0#g MX33/M0 g X 0 2.2850 0.9300)
*|I (MX32/M0#g MX32/M0 g X 0 2.2850 3.0400)
*|S (B1#8 2.2750 2.1450)
*|S (B1#9 2.2750 1.9800)
*|S (B1#10 2.2750 2.1450)
*|S (B1#11 1.8400 2.1450)
*|S (B1#12 1.8400 2.1450)
CD1 MX32/M0#g VSS 5.47582e-18
CD2 MX33/M0#g VSS 1.52031e-17
CD3 B1#12 VSS 7.37038e-18
CD4 B1#10 VSS 8.96049e-18
CD5 B1#11 VSS 7.6094e-18
CD6 MX33/M0#g 21#11 2.53841e-18
CD7 B1#12 21#3 2.28021e-18
CD8 MX33/M0#g 21#6 1.05585e-17
CD9 B1#10 MX33/M0#s 1.75978e-18
CD10 MX33/M0#g MX33/M0#s 1.05713e-17
CD11 B1#12 20#7 2.09505e-17
CD12 B1#11 MX33/M0#s 3.76765e-18
CD13 MX32/M0#g 16 1.50895e-17
CD14 B1#10 16 1.36093e-17
CD15 B1#11 16 1.16476e-17
CD16 B1#12 16 1.30989e-17
CD17 MX32/M0#g Y#13 2.90667e-18
CD18 B1#10 Y#13 2.61636e-18
CD19 B1#12 MX23/M0#d 2.3034e-18
CD20 B1#12 MX32/M0#d 2.29774e-18
CD21 MX33/M0#g MX30/M0#s 2.10722e-18
CD22 MX32/M0#g MX32/M0#d 1.602e-17
CD23 B1#12 Y#13 1.63674e-17
CD24 B1#12 Y#15 4.20147e-18
CD25 B1#12 Y 3.51453e-18
CD26 B1#10 MX32/M0#d 1.35439e-17
CD27 B1#10 Y 6.76775e-18
CD28 MX33/M0#g VSS#11 3.45211e-18
CD29 MX33/M0#g VSS#2 6.79271e-18
CD30 B1#12 VDD 1.59817e-18
CD31 MX32/M0#g MX24/M0#d 3.95078e-18
CD32 B1#10 VDD 5.13235e-18
CD33 MX32/M0#g VDD 1.53969e-17
CD34 B1#12 MX24/M0#d 2.20091e-17
CD35 MX32/M0#g VDD#7 7.17149e-18
CD36 MX32/M0#g VDD#14 3.48283e-18
CD37 B1#11 VDD 4.17544e-18
CD38 B1#11 MX24/M0#d 1.49272e-17
CD39 B1#10 C1 2.10862e-17
CD40 B1#12 C1 8.31558e-17
CD41 B1#10 C1#11 1.6741e-17
CD42 MX33/M0#g C1#11 6.57954e-18
CD43 B1#12 C1#12 3.06256e-17
CD44 B1#12 C1#11 3.36867e-18
CD45 MX33/M0#g C1#12 3.79256e-18
RgD25 MX32/M0#g B1#8 268.752411 $L=0.895 $W=0.15
RgD26 B1#8 B1#9 34.134449 $L=0.1645 $W=0.27
RgD27 B1#9 MX33/M0#g 337.444611 $L=1.05 $W=0.15
RfD28 B1#10 B1#11 32.752941 $L=0.435 $W=0.17
ReD29 B1#12 B1 0.014423 $L=0.03 $W=0.26
RjD30 B1#11 B1#12 152.000000 $A=0.0289
RiD31 B1#8 B1#10 15.000000 $A=0.0289
*
*|NET 20 7.18607e-16
*|I (MX33/M0#s MX33/M0 s X 0 2.2095 0.9300)
*|I (MX28/M0#s MX28/M0 s X 0 0.5505 0.9300)
*|I (MX27/M0#s MX27/M0 s X 0 1.9305 0.9300)
*|I (MX26/M0#s MX26/M0 s X 0 0.8295 0.9300)
*|S (20 0.6900 1.1250)
*|S (20#3 0.6900 0.9300)
*|S (20#4 2.0700 1.1250)
*|S (20#6 2.0700 0.9300)
*|S (20#7 2.0700 1.1250)
*|S (20#8 0.6900 1.1250)
CK1 MX28/M0#s VSS 4.90732e-18
CK2 MX33/M0#s VSS 5.11678e-19
CK3 20#8 VSS 2.23346e-17
CK4 20#7 VSS 1.66431e-17
CK5 MX28/M0#s 21#12 2.7079e-18
CK6 MX33/M0#s 21#12 1.05716e-17
CK7 MX33/M0#s 21#6 3.69669e-17
CK8 20#7 21#6 5.73368e-18
CK9 20#7 21#3 2.26731e-17
CK10 MX33/M0#s 21#11 1.05248e-17
CK11 MX33/M0#s 21#3 3.64731e-17
CK12 20#7 21#11 1.83148e-17
CK13 20#7 21#12 8.3436e-17
CK14 MX28/M0#s VSS#5 3.12798e-18
CK15 MX28/M0#s VSS#4 3.09747e-18
CK16 20#7 VSS#2 1.58518e-18
CK17 MX28/M0#s MX28/M0#d 4.30537e-17
CK18 20#7 VSS#11 3.8559e-18
CK19 MX33/M0#s VSS#2 9.16388e-18
CK20 20#8 VSS#11 2.52438e-17
CK21 MX28/M0#s MX26/M0#d 3.98e-17
CK22 20#8 MX28/M0#d 8.2566e-18
CK23 MX28/M0#s VSS#11 8.11507e-18
CK24 20#8 VSS#4 3.89116e-18
CK25 20#8 MX26/M0#d 3.15658e-17
CK26 MX33/M0#s VSS#11 6.20097e-18
RfK94 20 20#3 14.682353 $L=0.195 $W=0.17
RfK95 20#4 20#6 14.682353 $L=0.195 $W=0.17
ReK96 20#7 20#8 0.750000 $L=1.38 $W=0.23
RhK97 MX28/M0#s 20#3 7.500000 $A=0.0578
RhK98 MX33/M0#s 20#6 7.500000 $A=0.0578
RjK99 20#4 20#7 152.000000 $A=0.0289
RjK100 20 20#8 152.000000 $A=0.0289
RmwK101 MX27/M0#s MX33/M0#s 0.001000 $W=1000000
RmwK102 MX26/M0#s MX28/M0#s 0.001000 $W=1000000
*
*|NET Y 1.38668e-15
*|P (Y X 0 2.7750 2.2200)
*|I (MX30/M0#s MX30/M0 s X 0 2.7905 0.9300)
*|I (MX29/M0#s MX29/M0 s X 0 3.0695 0.9300)
*|I (MX32/M0#d MX32/M0 d X 0 2.3605 3.0400)
*|I (MX23/M0#d MX23/M0 d X 0 0.9805 3.0400)
*|I (MM0#s MM0 s X 0 2.6395 3.0400)
*|S (Y#1 1.1200 3.3850)
*|S (Y#3 1.1200 3.0400)
*|S (Y#4 2.5000 3.3850)
*|S (Y#6 2.5000 3.0400)
*|S (Y#7 2.9300 1.1850)
*|S (Y#9 2.9300 0.9300)
*|S (Y#10 2.9300 1.1850)
*|S (Y#11 2.8375 1.3295)
*|S (Y#12 2.7600 3.3850)
*|S (Y#13 2.5000 3.3850)
*|S (Y#14 2.3850 3.3850)
*|S (Y#15 1.2345 3.3850)
*|S (Y#16 1.1200 3.3850)
CI1 MX23/M0#d VSS 7.59274e-18
CI2 MX32/M0#d VSS 2.59365e-18
CI3 MX30/M0#s VSS 1.04694e-18
CI4 Y#15 VSS 1.14418e-17
CI5 Y#13 VSS 5.76322e-18
CI6 Y#10 VSS 2.06669e-17
CI7 Y VSS 6.66048e-18
CI8 MX30/M0#s 21#10 1.11031e-17
CI9 Y#10 21#11 3.82351e-17
CI10 MX30/M0#s 21#6 3.67976e-17
CI11 MX30/M0#s 21#11 1.03986e-17
CI12 Y#10 21#9 8.28595e-18
CI13 Y#10 21#6 1.09526e-17
CI14 MX30/M0#s 21#9 3.74031e-17
CI15 Y#10 21#10 2.05108e-17
CI16 MX30/M0#s 20#7 1.92176e-18
CI17 Y#13 MX33/M0#s 1.84344e-18
CI18 Y 18 1.61218e-17
CI19 MX32/M0#d 18 4.74168e-17
CI20 Y#10 20#7 1.35147e-17
CI21 Y#13 18 3.30709e-17
CI22 Y#10 18 2.68354e-18
CI23 MX30/M0#s 18 2.84681e-18
CI24 Y#10 MX33/M0#s 3.72916e-18
CI25 Y#15 14 7.33809e-18
CI26 MX23/M0#d 14 5.14238e-17
CI27 Y#13 16 3.8297e-17
CI28 MX32/M0#d 16 5.07052e-17
CI29 MX30/M0#s VSS#2 9.36788e-18
CI30 MX30/M0#s VSS#11 6.20097e-18
RfI70 Y#1 Y#3 25.976471 $L=0.345 $W=0.17
RfI71 Y#4 Y#6 25.976471 $L=0.345 $W=0.17
RfI72 Y#7 Y#9 19.200001 $L=0.255 $W=0.17
ReI73 Y#10 Y#11 0.055720 $L=0.1445 $W=0.415
ReI74 Y#11 Y 0.427960 $L=0.89 $W=0.26
ReI75 Y Y#12 0.525440 $L=1.165 $W=0.26
ReI76 Y#12 Y#13 0.091090 $L=0.26 $W=0.29
ReI77 Y#13 Y#14 0.049461 $L=0.1145 $W=0.29
ReI78 Y#14 Y#15 0.625216 $L=1.15 $W=0.23
ReI79 Y#15 Y#16 0.053985 $L=0.1145 $W=0.29
RhI80 MX30/M0#s Y#9 7.500000 $A=0.0578
Rh_2_I81 MX23/M0#d Y#3 5.000000 $A=0.0867
Rh_2_I82 MX32/M0#d Y#6 5.000000 $A=0.0867
RjI83 Y#7 Y#10 152.000000 $A=0.0289
RjI84 Y#4 Y#13 152.000000 $A=0.0289
RjI85 Y#1 Y#16 152.000000 $A=0.0289
RmwI86 MX29/M0#s MX30/M0#s 0.001000 $W=1000000
RmwI87 MM0#s MX32/M0#d 0.001000 $W=1000000
*
*|NET 21 8.59819e-16
*|I (MX33/M0#d MX33/M0 d X 0 2.3605 0.9300)
*|I (MX30/M0#d MX30/M0 d X 0 2.6395 0.9300)
*|I (MX29/M0#d MX29/M0 d X 0 3.2205 0.9300)
*|I (MX27/M0#d MX27/M0 d X 0 1.7795 0.9300)
*|S (21 1.6400 0.9300)
*|S (21#2 1.6400 0.9300)
*|S (21#3 1.6400 0.7550)
*|S (21#5 2.5000 0.9300)
*|S (21#6 2.5000 0.7550)
*|S (21#8 3.3600 0.9300)
*|S (21#9 3.3600 0.7550)
*|S (21#10 3.3600 0.7550)
*|S (21#11 2.5000 0.7550)
*|S (21#12 1.6400 0.7550)
CL1 MX33/M0#d VSS 2.62272e-19
CL2 21#12 VSS 6.87138e-18
CL3 21#11 VSS 4.82993e-18
CL4 21#10 VSS 2.91182e-17
CL5 21#3 VSS 6.75488e-18
CL6 21#6 VSS 5.80531e-19
CL7 21#9 VSS 2.17865e-17
CL8 21 VSS 4.58298e-19
CL9 21#12 VSS#11 3.24355e-17
CL10 21#11 VSS#2 1.12846e-17
CL11 21#10 VSS#11 3.46084e-17
CL12 21#9 VSS#11 6.22103e-18
CL13 21#3 MX26/M0#d 2.88301e-17
CL14 21#12 MX26/M0#d 6.93256e-18
CL15 21#12 VSS#2 8.35986e-18
CL16 21#6 VSS#2 9.46025e-18
CL17 21#9 VSS#2 9.46025e-18
CL18 21#11 VSS#11 4.55766e-17
CL19 21#3 VSS#2 7.85811e-18
CL20 21#10 VSS#2 9.06253e-18
CL21 21#3 VSS#11 5.68997e-18
CL22 21#6 VSS#11 5.68997e-18
RfL103 21#2 21#3 13.176471 $L=0.175 $W=0.17
RfL104 21#5 21#6 13.176471 $L=0.175 $W=0.17
RfL105 21#8 21#9 13.176471 $L=0.175 $W=0.17
ReL106 21#10 21#11 0.467391 $L=0.86 $W=0.23
ReL107 21#11 21#12 0.467391 $L=0.86 $W=0.23
RhL108 21 21#2 7.500000 $A=0.0578
RhL109 MX33/M0#d 21#5 7.500000 $A=0.0578
RhL110 MX29/M0#d 21#8 7.500000 $A=0.0578
RjL111 21#9 21#10 152.000000 $A=0.0289
RjL112 21#6 21#11 152.000000 $A=0.0289
RjL113 21#3 21#12 152.000000 $A=0.0289
RmwL114 MX30/M0#d MX33/M0#d 0.001000 $W=1000000
RmwL115 MX27/M0#d 21 0.001000 $W=1000000
*
*|NET 14 2.22342e-16
*|I (MX31/M0#s MX31/M0 s X 0 0.5505 3.0400)
*|I (MX23/M0#s MX23/M0 s X 0 0.8295 3.0400)
*|S (14 0.6900 3.2350)
CJ1 14 VSS 7.66933e-18
RmwJ88 MX31/M0#s 14 0.001000 $W=1000000
RmwJ89 MX23/M0#s 14 0.001000 $W=1000000
*
*|NET 16 2.31964e-16
*|I (MX32/M0#s MX32/M0 s X 0 2.2095 3.0400)
*|I (MX24/M0#s MX24/M0 s X 0 1.9305 3.0400)
*|S (16 2.0700 3.2350)
CJ2 16 VSS 4.71314e-18
RmwJ90 MX32/M0#s 16 0.001000 $W=1000000
RmwJ91 MX24/M0#s 16 0.001000 $W=1000000
*
*|NET 18 2.16002e-16
*|I (MX25/M0#s MX25/M0 s X 0 3.0695 3.0400)
*|I (MM0#d MM0 d X 0 2.7905 3.0400)
*|S (18 2.9300 3.2350)
CJ3 18 VSS 4.09047e-18
RmwJ92 MX25/M0#s 18 0.001000 $W=1000000
RmwJ93 MM0#d 18 0.001000 $W=1000000
*
*|NET C0 4.87777e-16
*|P (C0 X 0 3.2350 2.2150)
*|I (MX29/M0#g MX29/M0 g X 0 3.1450 0.9300)
*|I (MX25/M0#g MX25/M0 g X 0 3.1450 3.0400)
*|S (C0#8 3.2050 2.3095)
*|S (C0#9 3.2050 2.1450)
*|S (C0#10 3.2050 1.9800)
*|S (C0#11 3.2200 2.1450)
*|S (C0#12 3.2050 2.1450)
*|S (C0#13 3.2200 2.1450)
CE1 MX25/M0#g VSS 4.94914e-19
CE2 MX29/M0#g VSS 1.75125e-17
CE3 C0#12 VSS 1.29041e-17
CE4 C0 VSS 3.62579e-17
CE5 MX29/M0#g 21#6 2.37282e-18
CE6 C0#12 21#9 6.16762e-18
CE7 C0 21#10 1.54699e-17
CE8 C0#12 21#10 5.53114e-18
CE9 MX29/M0#g 21#10 4.01336e-18
CE10 C0 21#9 6.93732e-18
CE11 MX29/M0#g 21#9 1.38733e-17
CE12 C0 18 9.35004e-18
CE13 MX25/M0#g 18 1.77096e-17
CE14 C0 Y#10 2.1856e-17
CE15 C0#12 Y#10 4.42152e-18
CE16 MX25/M0#g MX32/M0#d 3.73547e-18
CE17 MX29/M0#g MX30/M0#s 1.20166e-17
CE18 C0 Y 9.62538e-17
CE19 C0#12 Y 7.7617e-18
CE20 C0 Y#13 1.93389e-17
CE21 C0#12 VSS#11 2.26168e-18
CE22 MX29/M0#g VSS#11 3.45211e-18
CE23 MX29/M0#g VSS#2 6.79271e-18
CE24 MX25/M0#g VDD#3 5.35471e-18
CE25 C0#12 VDD 1.68296e-17
CE26 MX25/M0#g VDD#14 5.23039e-18
CE27 C0#12 MX25/M0#d 2.46994e-17
CE28 C0 VDD 2.5413e-17
CE29 C0 MX25/M0#d 3.6472e-17
CE30 MX25/M0#g MX25/M0#d 2.25898e-17
CE31 C0#12 VDD#14 4.38774e-18
CE32 C0 VDD#14 8.54997e-18
CE33 MX25/M0#g VDD 1.17657e-17
RgE32 MX25/M0#g C0#8 234.617950 $L=0.73 $W=0.15
RgE33 C0#8 C0#9 38.857975 $L=0.1645 $W=0.27
RgE34 C0#9 C0#10 29.410927 $L=0.1645 $W=0.27
RgE35 C0#10 MX29/M0#g 337.444611 $L=1.05 $W=0.15
RfE36 C0#11 C0#12 1.129412 $L=0.015 $W=0.17
ReE37 C0#13 C0 0.033654 $L=0.07 $W=0.26
RjE38 C0#11 C0#13 152.000000 $A=0.0289
RiE39 C0#9 C0#12 15.000000 $A=0.0289
*
*Instance Section
*
MX33/M0	MX33/M0#d	MX33/M0#g	MX33/M0#s	VSS	nfet_01v8
+ L=1.5e-07	W=8.4e-07
MX30/M0	MX30/M0#d	MX30/M0#g	MX30/M0#s	VSS	nfet_01v8
+ L=1.5e-07	W=8.4e-07
MX29/M0	MX29/M0#d	MX29/M0#g	MX29/M0#s	VSS	nfet_01v8
+ L=1.5e-07	W=8.4e-07
MX28/M0	MX28/M0#d	MX28/M0#g	MX28/M0#s	VSS	nfet_01v8
+ L=1.5e-07	W=8.4e-07
MX27/M0	MX27/M0#d	MX27/M0#g	MX27/M0#s	VSS	nfet_01v8
+ L=1.5e-07	W=8.4e-07
MX26/M0	MX26/M0#d	MX26/M0#g	MX26/M0#s	VSS	nfet_01v8
+ L=1.5e-07	W=8.4e-07
MX32/M0	MX32/M0#d	MX32/M0#g	MX32/M0#s	VDD	pfet_01v8_hvt
+ L=1.5e-07	W=1.24e-06
MX31/M0	MX31/M0#d	MX31/M0#g	MX31/M0#s	VDD	pfet_01v8_hvt
+ L=1.5e-07	W=1.24e-06
MX25/M0	MX25/M0#d	MX25/M0#g	MX25/M0#s	VDD	pfet_01v8_hvt
+ L=1.5e-07	W=1.24e-06
MX24/M0	MX24/M0#d	MX24/M0#g	MX24/M0#s	VDD	pfet_01v8_hvt
+ L=1.5e-07	W=1.24e-06
MX23/M0	MX23/M0#d	MX23/M0#g	MX23/M0#s	VDD	pfet_01v8_hvt
+ L=1.5e-07	W=1.24e-06
MM0	MM0#d	MM0#g	MM0#s	VDD	pfet_01v8_hvt	L=1.5e-07
+ W=1.24e-06
.ENDS
