*
*|DSPF 1.5
*
*|DATE "Fri Feb 28 12:26:04 2025"
*|VENDOR "Cadence Design Systems"
*|PROGRAM "Cadence Quantus Extraction"
*|VERSION "22.1.0-p089 Linux 64 bit - (Thu Jan 19 11:47:08 PST 2023)"
*|DESIGN "OR3X2_LP"
*|DIVIDER /
*|DELIMITER #
*|DeviceFingerDelim "@"
*|BUSBIT []
*|GLOBAL_TEMPERATURE 25
*|OPERATING_TEMPERATURE 25
** QRC_TECH_DIR /vols/wfo_devel/projects/reference_SKY130/tech/sky130_release_0.0.4/quantus/extraction/typical 
** HIERARCHICAL_SPLIT_PINS_DELIMITER '%'
** caps2d version: 10
*
.SUBCKT  OR3X2_LP A B C VDD VSS Y
*
*Net Section
*
*|GROUND_NET VSS
*
*|NET VSS 9.89764e-16
*|P (VSS X 0 1.5250 0.0050)
*|I (MX17/M0#d MX17/M0 d X 0 1.4105 0.7200)
*|I (MX13/M0#d MX13/M0 d X 0 0.8295 0.7200)
*|I (MX12/M0#d MX12/M0 d X 0 0.5505 0.7200)
*|I (MX10/M0#s MX10/M0 s X 0 1.7495 0.9300)
*|S (VSS#1 2.7595 0.0000)
*|S (VSS#2 1.6100 0.0000)
*|S (VSS#3 1.3800 0.0000)
*|S (VSS#4 1.3800 0.0000)
*|S (VSS#6 0.6900 0.0000)
*|S (VSS#7 0.0000 0.0000)
*|S (VSS#9 1.6100 0.9300)
*|S (VSS#11 0.6900 0.7200)
*|S (VSS#12 1.3800 0.0000)
RfE30 VSS#1 VSS#2 58.579208 $L=1.1495 $W=0.25
RfE31 VSS#2 VSS#3 11.500811 $L=0.23 $W=0.25
RfE32 VSS#3 VSS#6 35.052811 $L=0.69 $W=0.25
RfE33 VSS#6 VSS#7 35.052811 $L=0.69 $W=0.25
RfE34 VSS#2 VSS#9 63.415680 $L=0.93 $W=0.17
RfE35 VSS#6 VSS#11 47.603916 $L=0.72 $W=0.17
ReE36 VSS VSS#12 0.045313 $L=0.145 $W=0.4
RhE37 MX17/M0#d VSS#9 7.500000 $A=0.0578
RhE38 MX13/M0#d VSS#11 15.000000 $A=0.0289
Rh_3_E39 VSS#4 VSS#3 3.000000 $A=0.1445
RjE40 VSS#3 VSS#12 30.400000 $A=0.1445
RmwE41 MX12/M0#d MX13/M0#d 0.001000 $W=1000000
RmwE42 MX10/M0#s MX17/M0#d 0.001000 $W=1000000
*
*|NET 7 1.76309e-15
*|I (MX17/M0#s MX17/M0 s X 0 1.2595 0.7200)
*|I (MX13/M0#s MX13/M0 s X 0 0.9805 0.7200)
*|I (MX12/M0#s MX12/M0 s X 0 0.3995 0.7200)
*|I (MX10/M0#g MX10/M0 g X 0 1.8250 0.9300)
*|I (MX18/M0#g MX18/M0 g X 0 1.8250 3.0400)
*|I (MX11/M0#s MX11/M0 s X 0 0.3995 3.3900)
*|S (7 1.8250 3.0400)
*|S (7#8 1.8850 1.7895)
*|S (7#9 1.8850 1.6250)
*|S (7#10 1.8850 1.4600)
*|S (7#12 0.2600 3.3900)
*|S (7#13 0.2600 3.3850)
*|S (7#15 0.2600 0.7200)
*|S (7#16 0.2600 0.5900)
*|S (7#18 1.1200 0.7200)
*|S (7#19 1.1200 0.5900)
*|S (7#20 1.9150 1.6250)
*|S (7#21 1.8850 1.6250)
*|S (7#22 1.1200 0.5900)
*|S (7#23 0.2600 0.5900)
*|S (7#24 1.9150 1.6250)
*|S (7#25 0.2600 3.3850)
CG1 MX10/M0#g VSS 1.5294e-17
CG2 7#25 VSS 6.84001e-18
CG3 7#24 VSS 1.57249e-17
CG4 7#23 VSS 3.26731e-17
CG5 7#22 VSS 1.61684e-17
CG6 7#21 VSS 2.05794e-17
CG7 7#16 VSS 2.00647e-17
CG8 7#13 VSS 4.65989e-19
CG9 7#19 VSS 4.43377e-18
CG10 7#23 9 5.30672e-19
CG11 7 11 2.70698e-18
CG12 7#22 11 1.21247e-18
CG13 7#25 9 3.35508e-17
CG14 7#13 9 2.58657e-17
CG15 7#25 11 2.73108e-17
CG16 7#16 VSS#12 4.32066e-18
CG17 7#19 VSS#12 4.21287e-18
CG18 7#23 VSS#6 4.16791e-18
CG19 MX10/M0#g VSS#12 3.9565e-18
CG20 7#23 VSS#7 3.86694e-18
CG21 7#22 VSS#6 3.12289e-18
CG22 7#25 MX17/M0#d 2.8666e-18
CG23 7#24 VSS#2 2.68297e-18
CG24 7#21 VSS#12 2.29122e-18
CG25 7#22 VSS#12 6.70907e-17
CG26 7#16 VSS#7 6.71983e-18
CG27 7#19 MX13/M0#d 1.90433e-17
CG28 7#24 VSS#12 8.27262e-18
CG29 7#22 MX17/M0#d 2.67814e-17
CG30 7#19 MX17/M0#d 1.6975e-17
CG31 7#22 MX13/M0#d 1.7526e-17
CG32 7#19 VSS#2 6.95549e-18
CG33 7#23 MX13/M0#d 1.68017e-17
CG34 7#22 VSS#2 7.04947e-18
CG35 MX10/M0#g MX17/M0#d 1.5345e-17
CG36 7#23 VSS#12 5.17214e-17
CG37 7#24 MX17/M0#d 2.51647e-17
CG38 7#16 MX13/M0#d 2.05922e-17
CG39 MX10/M0#g VSS#2 6.79271e-18
RgG53 7 7#8 401.711273 $L=1.25 $W=0.15
RgG54 7#8 7#9 38.857975 $L=0.1645 $W=0.27
RgG55 7#9 7#10 29.410927 $L=0.1645 $W=0.27
RgG56 7#10 MX10/M0#g 170.351288 $L=0.53 $W=0.15
RfG57 7#12 7#13 0.376471 $L=0.005 $W=0.17
RfG58 7#15 7#16 9.788236 $L=0.13 $W=0.17
RfG59 7#18 7#19 9.788236 $L=0.13 $W=0.17
RfG60 7#20 7#21 2.258824 $L=0.03 $W=0.17
ReG61 7#22 7#23 0.467391 $L=0.86 $W=0.23
ReG62 7#22 7#24 0.829089 $L=1.83 $W=0.23
ReG63 7#24 7#25 1.690502 $L=3.415 $W=0.23
RhG64 MX12/M0#s 7#15 15.000000 $A=0.0289
RhG65 MX17/M0#s 7#18 15.000000 $A=0.0289
Rh_2_G66 MX11/M0#s 7#12 15.000000 $A=0.0289
RjG67 7#19 7#22 152.000000 $A=0.0289
RjG68 7#16 7#23 152.000000 $A=0.0289
RjG69 7#20 7#24 152.000000 $A=0.0289
RjG70 7#13 7#25 152.000000 $A=0.0289
RiG71 7#9 7#21 15.000000 $A=0.0289
RmwG72 MX13/M0#s MX17/M0#s 0.001000 $W=1000000
RmwG73 MX18/M0#g 7 0.001000 $W=1000000
*
*|NET C 4.16059e-16
*|P (C X 0 0.4750 2.2600)
*|I (MX12/M0#g MX12/M0 g X 0 0.4750 0.7200)
*|I (MX11/M0#g MX11/M0 g X 0 0.4750 3.3900)
*|S (C#8 0.4750 2.5000)
*|S (C#9 0.4750 2.3350)
*|S (C#10 0.4750 2.5000)
*|S (C#11 0.4600 2.5000)
*|S (C#12 0.4600 2.5000)
CC1 MX11/M0#g VSS 2.36226e-18
CC2 MX12/M0#g VSS 9.83202e-18
CC3 C#11 VSS 2.50236e-18
CC4 C VSS 3.38827e-17
CC5 MX11/M0#g 9 8.90803e-18
CC6 C#11 9 1.02338e-17
CC7 C#11 7#23 2.06477e-18
CC8 C#11 7 1.45098e-18
CC9 MX12/M0#g 7#19 1.44074e-18
CC10 MX12/M0#g 7#23 9.49107e-19
CC11 C 7 9.27909e-19
CC12 C#11 7#24 8.59353e-19
CC13 C 7#21 7.00515e-19
CC14 C 7#24 2.30846e-18
CC15 C 7#23 1.24424e-17
CC16 C 7#16 2.47847e-18
CC17 C 7#13 3.79824e-18
CC18 C#11 7#13 4.48851e-18
CC19 MX11/M0#g 7#13 8.9032e-18
CC20 MX12/M0#g 7#16 8.15019e-18
CC21 MX11/M0#g 7#25 2.7519e-18
CC22 C 7#25 3.3105e-17
CC23 C#11 7#25 8.90691e-18
CC24 MX12/M0#g VSS#6 4.95795e-18
CC25 MX12/M0#g MX13/M0#d 7.10783e-18
CC26 MX12/M0#g VSS#12 2.5128e-18
CC27 C VDD#4 1.1886e-18
CC28 MX11/M0#g VDD 1.61007e-17
CC29 C#11 VDD 3.2959e-17
CC30 MX11/M0#g VDD#8 3.20679e-18
CC31 C VDD 3.78595e-17
CC32 MX11/M0#g VDD#4 7.06165e-18
CC33 C#11 MX18/M0#s 5.03071e-18
CC34 C MX18/M0#s 3.89245e-18
RgC15 MX11/M0#g C#8 267.145752 $L=0.89 $W=0.15
RgC16 C#8 C#9 34.134449 $L=0.1645 $W=0.27
RgC17 C#9 MX12/M0#g 518.997986 $L=1.615 $W=0.15
RfC18 C#10 C#11 1.129412 $L=0.015 $W=0.17
ReC19 C C#12 0.115385 $L=0.24 $W=0.26
RjC20 C#11 C#12 152.000000 $A=0.0289
RiC21 C#8 C#10 15.000000 $A=0.0289
*
*|NET 9 1.47155e-16
*|I (MX16/M0#s MX16/M0 s X 0 0.8295 3.3900)
*|I (MX11/M0#d MX11/M0 d X 0 0.5505 3.3900)
*|S (9 0.6900 3.4300)
CH1 9 VSS 1.00931e-17
CH2 9 11 2.85406e-17
RmwH74 MX16/M0#s 9 0.001000 $W=1000000
RmwH75 MX11/M0#d 9 0.001000 $W=1000000
*
*|NET 11 1.33832e-16
*|I (MX16/M0#d MX16/M0 d X 0 0.9805 3.3900)
*|I (MM0#s MM0 s X 0 1.2595 3.3900)
*|S (11 1.1200 3.4300)
CH3 11 VSS 2.32234e-17
RmwH76 MX16/M0#d 11 0.001000 $W=1000000
RmwH77 MM0#s 11 0.001000 $W=1000000
*
*|NET A 4.93474e-16
*|P (A X 0 1.3950 2.0550)
*|I (MX17/M0#g MX17/M0 g X 0 1.3350 0.7200)
*|I (MM0#g MM0 g X 0 1.3350 3.3900)
*|S (A#8 1.3350 2.1450)
*|S (A#9 1.3350 1.9800)
*|S (A#10 1.3800 2.1450)
*|S (A#11 1.3350 2.1450)
*|S (A#12 1.3800 2.1450)
CA1 MM0#g VSS 1.11357e-17
CA2 MX17/M0#g VSS 5.54594e-18
CA3 A#12 VSS 3.45881e-18
CA4 A#11 VSS 1.29076e-17
CA5 A VSS 1.40335e-17
CA6 MX17/M0#g 7#22 1.85575e-18
CA7 A#11 7#22 1.81224e-18
CA8 A 7#24 8.24826e-17
CA9 A#11 7#19 3.18894e-18
CA10 A 7#22 5.0308e-18
CA11 A#12 7#24 4.2842e-17
CA12 A#11 7#24 8.43682e-18
CA13 A 7#21 7.88517e-18
CA14 MX17/M0#g 7#19 6.55178e-18
CA15 A#11 7#25 5.25409e-18
CA16 MM0#g 7#25 5.97444e-18
CA17 A#12 7#25 3.79575e-17
CA18 A VSS#2 1.23793e-18
CA19 MX17/M0#g MX17/M0#d 6.89747e-18
CA20 MX17/M0#g VSS#2 6.64011e-18
CA21 A#11 MX17/M0#d 3.17569e-18
CA22 MX17/M0#g VSS#12 2.5128e-18
CA23 MM0#g VDD 1.61639e-17
CA24 A#11 VDD 1.20564e-17
CA25 MM0#g VDD#8 4.21087e-18
CA26 MM0#g VDD#4 7.06165e-18
CA27 MM0#g MX18/M0#s 8.42278e-18
CA28 A#12 VDD 8.50824e-18
CA29 A#11 MX18/M0#s 1.45632e-17
CA30 A#12 MX18/M0#s 1.37376e-17
CA31 A#12 C#11 7.38707e-18
CA32 A#12 C 1.41607e-17
CA33 A#11 C 2.21753e-18
CA34 A#11 B 7.99852e-18
CA35 A#12 B 2.19709e-17
CA36 A B#12 2.02881e-17
CA37 A B 5.7909e-17
RgA1 MM0#g A#8 381.219086 $L=1.245 $W=0.15
RgA2 A#8 A#9 34.134449 $L=0.1645 $W=0.27
RgA3 A#9 MX17/M0#g 404.924622 $L=1.26 $W=0.15
RfA4 A#10 A#11 3.388236 $L=0.045 $W=0.17
ReA5 A#12 A 0.043269 $L=0.09 $W=0.26
RjA6 A#10 A#12 152.000000 $A=0.0289
RiA7 A#8 A#11 15.000000 $A=0.0289
*
*|NET Y 9.05854e-16
*|P (Y X 0 2.3150 2.1200)
*|I (MX10/M0#d MX10/M0 d X 0 1.9005 0.9300)
*|I (MX18/M0#d MX18/M0 d X 0 1.9005 3.0400)
*|S (Y#1 2.0400 3.3850)
*|S (Y#3 2.0400 3.0400)
*|S (Y#5 2.0400 0.9300)
*|S (Y#6 2.0400 0.6800)
*|S (Y#7 2.0400 3.3850)
*|S (Y#8 2.3000 3.3850)
*|S (Y#9 2.3000 0.6800)
*|S (Y#10 2.0400 0.6800)
CF1 MX18/M0#d VSS 4.23235e-18
CF2 MX10/M0#d VSS 5.2483e-19
CF3 Y#10 VSS 5.30186e-17
CF4 Y#7 VSS 3.41736e-18
CF5 Y#6 VSS 2.96936e-18
CF6 Y VSS 3.55503e-17
CF7 MX18/M0#d 7#21 4.01213e-18
CF8 Y#7 7 3.05954e-18
CF9 Y#10 MX10/M0#g 2.45286e-18
CF10 MX18/M0#d 7#25 1.76536e-18
CF11 Y 7#24 1.62698e-16
CF12 MX18/M0#d 7 2.23095e-17
CF13 Y#10 7#22 2.90197e-17
CF14 Y#6 7#22 5.88235e-18
CF15 Y#7 7#24 8.30514e-17
CF16 Y#10 7#24 6.22263e-17
CF17 Y#6 7#24 1.64698e-17
CF18 Y#6 7#21 1.94896e-17
CF19 Y#6 MX10/M0#g 1.522e-17
CF20 Y 7#21 8.77536e-18
CF21 MX18/M0#d 7#24 3.39201e-17
CF22 Y#7 7#25 1.30099e-17
CF23 Y#10 MX17/M0#d 6.793e-18
CF24 Y#10 VSS#1 5.32122e-18
CF25 Y#6 VSS#2 7.85811e-18
CF26 Y#6 MX17/M0#d 3.7512e-17
CF27 Y#10 VSS#12 4.18355e-17
CF28 Y#10 VSS#2 5.83912e-18
CF29 Y#6 VSS#12 5.13221e-18
RfF43 Y#1 Y#3 25.976471 $L=0.345 $W=0.17
RfF44 Y#5 Y#6 18.823528 $L=0.25 $W=0.17
ReF45 Y#7 Y#8 0.091090 $L=0.26 $W=0.29
ReF46 Y#8 Y 0.573517 $L=1.265 $W=0.26
ReF47 Y Y#9 0.657652 $L=1.44 $W=0.26
ReF48 Y#9 Y#10 0.091090 $L=0.26 $W=0.29
RhF49 MX10/M0#d Y#5 7.500000 $A=0.0578
Rh_2_F50 MX18/M0#d Y#3 5.000000 $A=0.0867
RjF51 Y#1 Y#7 152.000000 $A=0.0289
RjF52 Y#6 Y#10 152.000000 $A=0.0289
*
*|NET VDD 8.35538e-16
*|P (VDD X 0 1.5250 4.1450)
*|I (MX18/M0#s MX18/M0 s X 0 1.7495 3.0400)
*|I (MM0#d MM0 d X 0 1.4105 3.3900)
*|S (VDD#1 2.7595 4.1400)
*|S (VDD#2 1.6100 4.1400)
*|S (VDD#3 1.3800 4.1400)
*|S (VDD#4 1.3800 4.1400)
*|S (VDD#7 1.6100 3.0400)
*|S (VDD#8 1.3800 4.1400)
CD1 MX18/M0#s VSS 1.38575e-18
CD2 VDD#8 VSS 2.46773e-18
CD3 VDD#4 VSS 6.01893e-18
CD4 VDD VSS 2.1786e-19
CD5 VDD 11 2.21699e-18
CD6 VDD 9 7.53489e-18
CD7 VDD#8 11 5.26604e-18
CD8 MX18/M0#s 11 2.93756e-17
CD9 VDD#4 11 1.39787e-17
CD10 VDD#4 9 1.54733e-17
CD11 VDD#8 9 6.42421e-18
CD12 VDD#8 7 4.03491e-18
CD13 VDD 7#24 3.69557e-18
CD14 VDD 7#23 2.77596e-18
CD15 VDD#8 7#13 5.75016e-18
CD16 MX18/M0#s 7 2.34148e-17
CD17 VDD#8 7#24 7.84236e-18
CD18 VDD 7 1.46337e-17
CD19 VDD#4 7 7.17149e-18
CD20 VDD 7#13 1.68404e-17
CD21 VDD#4 7#13 8.56361e-18
CD22 MX18/M0#s 7#24 2.50078e-17
CD23 VDD#4 7#25 1.79182e-17
CD24 VDD 7#25 5.58743e-17
CD25 MX18/M0#s 7#25 3.82212e-17
CD26 VDD#8 7#25 7.78853e-17
CD27 VDD#4 Y#7 5.51776e-18
CD28 VDD#4 MX18/M0#d 8.70981e-18
CD29 VDD Y#7 4.61321e-17
CD30 MX18/M0#s Y#7 8.47945e-18
CD31 VDD#8 MX18/M0#d 6.04361e-18
CD32 VDD Y 3.19458e-17
CD33 VDD MX18/M0#d 5.40302e-18
CD34 VDD#8 Y#7 3.92073e-17
CD35 MX18/M0#s MX18/M0#d 5.57419e-17
CD36 VDD#1 Y#7 5.30761e-18
RfD22 VDD#1 VDD#2 58.579208 $L=1.1495 $W=0.25
RfD23 VDD#2 VDD#3 11.500811 $L=0.23 $W=0.25
RfD24 VDD#2 VDD#7 76.215675 $L=1.1 $W=0.17
ReD25 VDD VDD#8 0.045313 $L=0.145 $W=0.4
Rh_1_D26 VDD#4 VDD#3 3.000000 $A=0.1445
Rh_2_D27 MX18/M0#s VDD#7 5.000000 $A=0.0867
RjD28 VDD#3 VDD#8 30.400000 $A=0.1445
RmwD29 MM0#d MX18/M0#s 0.001000 $W=1000000
*
*|NET B 4.72611e-16
*|P (B X 0 0.9350 1.6950)
*|I (MX13/M0#g MX13/M0 g X 0 0.9050 0.7200)
*|I (MX16/M0#g MX16/M0 g X 0 0.9050 3.3900)
*|S (B#8 0.9050 1.3300)
*|S (B#9 0.9050 1.1650)
*|S (B#10 0.9200 1.3300)
*|S (B#11 0.9050 1.3300)
*|S (B#12 0.9200 1.3300)
CB1 MX16/M0#g VSS 1.58354e-17
CB2 MX13/M0#g VSS 1.00923e-17
CB3 B#12 VSS 2.10081e-17
CB4 B#11 VSS 2.6427e-17
CB5 B VSS 1.72946e-17
CB6 B#11 MX10/M0#g 2.11013e-18
CB7 MX16/M0#g 7#13 1.54511e-18
CB8 MX13/M0#g 7#16 1.37898e-18
CB9 B#11 7#23 1.17878e-18
CB10 B 7#21 1.044e-18
CB11 B#11 7#24 5.16919e-18
CB12 B#12 7#22 2.449e-17
CB13 B#11 7#19 5.51231e-18
CB14 B#12 7#24 2.10053e-17
CB15 MX13/M0#g 7#19 6.22946e-18
CB16 B#11 7#22 4.75335e-18
CB17 B#12 7#19 3.14457e-18
CB18 B 7#25 1.3082e-17
CB19 B#11 7#25 3.54228e-18
CB20 MX16/M0#g 7#25 3.16972e-18
CB21 MX13/M0#g MX17/M0#d 1.32367e-18
CB22 MX13/M0#g VSS#6 4.32335e-18
CB23 MX13/M0#g MX13/M0#d 6.22946e-18
CB24 B#11 MX13/M0#d 1.48668e-17
CB25 MX13/M0#g VSS#12 2.5128e-18
CB26 B#11 MX17/M0#d 5.71834e-18
CB27 B#12 MX17/M0#d 3.45398e-18
CB28 MX16/M0#g MX18/M0#s 1.78662e-18
CB29 MX16/M0#g VDD#4 7.06165e-18
CB30 MX16/M0#g VDD 1.39091e-17
CB31 MX16/M0#g VDD#8 2.9177e-18
CB32 B VDD 5.36122e-18
CB33 B C 8.83128e-17
CB34 B#11 C#11 4.33838e-18
CB35 MX16/M0#g C#11 5.25883e-18
CB36 B C#11 9.05733e-18
RgB8 MX16/M0#g B#8 643.105713 $L=2.06 $W=0.15
RgB9 B#8 B#9 34.134449 $L=0.1645 $W=0.27
RgB10 B#9 MX13/M0#g 143.037964 $L=0.445 $W=0.15
RfB11 B#10 B#11 1.129412 $L=0.015 $W=0.17
ReB12 B B#12 0.175481 $L=0.365 $W=0.26
RjB13 B#10 B#12 152.000000 $A=0.0289
RiB14 B#8 B#11 15.000000 $A=0.0289
*
*Instance Section
*
MX17/M0	MX17/M0#d	MX17/M0#g	MX17/M0#s	VSS	nfet_01v8
+ L=1.5e-07	W=4.2e-07
MX13/M0	MX13/M0#d	MX13/M0#g	MX13/M0#s	VSS	nfet_01v8
+ L=1.5e-07	W=4.2e-07
MX12/M0	MX12/M0#d	MX12/M0#g	MX12/M0#s	VSS	nfet_01v8
+ L=1.5e-07	W=4.2e-07
MX10/M0	MX10/M0#d	MX10/M0#g	MX10/M0#s	VSS	nfet_01v8
+ L=1.5e-07	W=8.4e-07
MX18/M0	MX18/M0#d	MX18/M0#g	MX18/M0#s	VDD	pfet_01v8_hvt
+ L=1.5e-07	W=1.24e-06
MX16/M0	MX16/M0#d	MX16/M0#g	MX16/M0#s	VDD	pfet_01v8_hvt
+ L=1.5e-07	W=5.4e-07
MX11/M0	MX11/M0#d	MX11/M0#g	MX11/M0#s	VDD	pfet_01v8_hvt
+ L=1.5e-07	W=5.4e-07
MM0	MM0#d	MM0#g	MM0#s	VDD	pfet_01v8_hvt	L=1.5e-07
+ W=5.4e-07
.ENDS
