*
*|DSPF 1.5
*
*|DATE "Fri Feb 28 12:23:09 2025"
*|VENDOR "Cadence Design Systems"
*|PROGRAM "Cadence Quantus Extraction"
*|VERSION "22.1.0-p089 Linux 64 bit - (Thu Jan 19 11:47:08 PST 2023)"
*|DESIGN "OR4X2_LP"
*|DIVIDER /
*|DELIMITER #
*|DeviceFingerDelim "@"
*|BUSBIT []
*|GLOBAL_TEMPERATURE 25
*|OPERATING_TEMPERATURE 25
** QRC_TECH_DIR /vols/wfo_devel/projects/reference_SKY130/tech/sky130_release_0.0.4/quantus/extraction/typical 
** HIERARCHICAL_SPLIT_PINS_DELIMITER '%'
** caps2d version: 10
*
.SUBCKT  OR4X2_LP A B C D VDD VSS Y
*
*Net Section
*
*|GROUND_NET VSS
*
*|NET 13 1.21045e-16
*|I (MX20/M0#s MX20/M0 s X 0 0.5505 3.3900)
*|I (MM0#s MM0 s X 0 0.8295 3.3900)
*|S (13 0.6900 3.3450)
CI1 13 VSS 8.04578e-18
CI2 13 15 2.3222e-17
RmwI89 MX20/M0#s 13 0.001000 $W=1000000
RmwI90 MM0#s 13 0.001000 $W=1000000
*
*|NET 15 1.19114e-16
*|I (MX25/M0#s MX25/M0 s X 0 1.2595 3.3900)
*|I (MM0#d MM0 d X 0 0.9805 3.3900)
*|S (15 1.1200 3.3450)
CI3 15 VSS 1.30886e-17
CI4 15 17 2.80708e-17
RmwI91 MX25/M0#s 15 0.001000 $W=1000000
RmwI92 MM0#d 15 0.001000 $W=1000000
*
*|NET B 6.79721e-16
*|P (B X 0 1.8550 2.0200)
*|I (MX24/M0#g MX24/M0 g X 0 1.7650 0.8000)
*|I (MX25/M0#g MX25/M0 g X 0 1.3350 3.3900)
*|S (B#8 1.3350 2.8145)
*|S (B#9 1.3350 2.6500)
*|S (B#10 1.7750 1.5850)
*|S (B#11 1.7750 1.7500)
*|S (B#12 1.8400 1.7500)
*|S (B#13 1.7750 1.7500)
*|S (B#14 1.3350 2.6500)
*|S (B#15 1.8400 1.7500)
CB1 MX25/M0#g VSS 1.6791e-18
CB2 MX24/M0#g VSS 1.16923e-17
CB3 B#15 VSS 5.16354e-18
CB4 B#14 VSS 3.3944e-18
CB5 B#13 VSS 2.4417e-17
CB6 B VSS 3.2754e-18
CB7 B#14 17 8.57338e-18
CB8 MX25/M0#g 17 6.77934e-18
CB9 B#14 15 5.693e-18
CB10 MX25/M0#g 15 6.77934e-18
CB11 B#14 11 3.23072e-18
CB12 MX24/M0#g 11#18 2.38456e-18
CB13 B#14 11#22 2.35354e-18
CB14 B#13 MX24/M0#d 1.29196e-18
CB15 MX24/M0#g MX24/M0#d 4.15193e-18
CB16 B#13 11#21 7.16567e-18
CB17 B#15 11#21 2.7423e-17
CB18 MX25/M0#g 11#24 4.82223e-18
CB19 B#15 11#22 5.57473e-17
CB20 B#13 11#22 1.00629e-17
CB21 B 11#22 1.32355e-16
CB22 B#14 11#24 2.35442e-17
CB23 B#13 11#19 6.80001e-18
CB24 B 11#19 7.03384e-18
CB25 MX24/M0#g VSS#15 2.35969e-18
CB26 MX24/M0#g VSS#4 5.67997e-18
CB27 B#13 MX24/M0#s 1.24162e-17
CB28 B#15 MX24/M0#s 3.56592e-18
CB29 MX24/M0#g MX24/M0#s 6.94991e-18
CB30 B#13 MX23/M0#d 3.16669e-18
CB31 MX25/M0#g MX23/M0#d 1.78662e-18
CB32 B#14 VDD#8 1.49535e-18
CB33 B#14 VDD 2.73553e-17
CB34 B MX23/M0#d 1.85433e-17
CB35 B#14 MX23/M0#d 1.7742e-17
CB36 B#13 VDD 4.35953e-18
CB37 MX25/M0#g VDD#8 4.21087e-18
CB38 MX25/M0#g VDD#4 6.32563e-18
CB39 MX25/M0#g VDD 1.39424e-17
CB40 B VDD 7.2488e-18
CB41 B D#14 3.58767e-18
CB42 B D 1.82076e-17
CB43 B#14 D#14 1.48097e-17
CB44 B#14 D 6.62596e-18
CB45 B#13 D#13 1.28155e-17
CB46 B#13 D 3.18818e-18
RgB8 MX25/M0#g B#8 184.811295 $L=0.575 $W=0.15
RgB9 B#8 B#9 34.134449 $L=0.1645 $W=0.27
RgB10 MX24/M0#g B#10 252.291290 $L=0.785 $W=0.15
RgB11 B#10 B#11 34.134449 $L=0.1645 $W=0.27
RfB12 B#12 B#13 4.894118 $L=0.065 $W=0.17
RfB13 B#13 B#14 89.597572 $L=1.34 $W=0.17
ReB14 B B#15 0.129808 $L=0.27 $W=0.26
RjB15 B#12 B#15 152.000000 $A=0.0289
RiB16 B#11 B#13 15.000000 $A=0.0289
RiB17 B#9 B#14 15.000000 $A=0.0289
*
*|NET VSS 1.15228e-15
*|P (VSS X 0 1.5250 0.0050)
*|I (MX24/M0#s MX24/M0 s X 0 1.8405 0.8000)
*|I (MX19/M0#s MX19/M0 s X 0 0.9805 0.8000)
*|I (MX17/M0#s MX17/M0 s X 0 2.1795 1.0100)
*|I (MX16/M0#s MX16/M0 s X 0 1.2595 0.8000)
*|I (MX15/M0#s MX15/M0 s X 0 0.3995 0.8000)
*|S (VSS#1 3.2195 0.0000)
*|S (VSS#2 2.0400 0.0000)
*|S (VSS#3 1.6100 0.0000)
*|S (VSS#4 1.6100 0.0000)
*|S (VSS#6 1.1200 0.0000)
*|S (VSS#7 0.1725 0.0000)
*|S (VSS#8 0.2600 0.1245)
*|S (VSS#10 0.2600 0.8000)
*|S (VSS#12 2.0400 1.0100)
*|S (VSS#14 1.1200 0.8000)
*|S (VSS#15 1.6100 0.0000)
RfF42 VSS#1 VSS#2 60.115208 $L=1.1795 $W=0.25
RfF43 VSS#2 VSS#3 21.740810 $L=0.43 $W=0.25
RfF44 VSS#3 VSS#6 24.812811 $L=0.49 $W=0.25
RfF45 VSS#6 VSS#7 43.100529 $L=0.9475 $W=0.25
RfF46 VSS#7 VSS#8 3.709770 $L=0.1245 $W=0.345
RfF47 VSS#8 VSS#10 50.832806 $L=0.675 $W=0.17
RfF48 VSS#2 VSS#12 69.439209 $L=1.01 $W=0.17
RfF49 VSS#6 VSS#14 53.627445 $L=0.8 $W=0.17
ReF50 VSS#15 VSS 0.026563 $L=0.085 $W=0.4
RhF51 MX15/M0#s VSS#10 15.000000 $A=0.0289
RhF52 MX24/M0#s VSS#12 7.500000 $A=0.0578
RhF53 MX19/M0#s VSS#14 15.000000 $A=0.0289
Rh_3_F54 VSS#4 VSS#3 2.500000 $A=0.1734
RjF55 VSS#3 VSS#15 25.333334 $A=0.1734
RmwF56 MX17/M0#s MX24/M0#s 0.001000 $W=1000000
RmwF57 MX16/M0#s MX19/M0#s 0.001000 $W=1000000
*
*|NET 11 1.83372e-15
*|I (MX24/M0#d MX24/M0 d X 0 1.6895 0.8000)
*|I (MX19/M0#d MX19/M0 d X 0 0.8295 0.8000)
*|I (MX17/M0#g MX17/M0 g X 0 2.2550 1.0100)
*|I (MX16/M0#d MX16/M0 d X 0 1.4105 0.8000)
*|I (MX15/M0#d MX15/M0 d X 0 0.5505 0.8000)
*|I (MX20/M0#d MX20/M0 d X 0 0.3995 3.3900)
*|I (MX18/M0#g MX18/M0 g X 0 2.2550 3.0400)
*|S (11 2.2550 3.0400)
*|S (11#8 2.2550 2.0850)
*|S (11#9 2.2550 1.9200)
*|S (11#10 0.2600 3.4950)
*|S (11#12 0.2600 3.3900)
*|S (11#14 0.6900 0.8000)
*|S (11#15 0.6900 0.5900)
*|S (11#17 1.5500 0.8000)
*|S (11#18 1.5500 0.5900)
*|S (11#19 2.2550 2.0850)
*|S (11#21 1.5500 0.5900)
*|S (11#22 2.2550 2.0850)
*|S (11#23 0.4045 3.4400)
*|S (11#24 0.2600 3.4950)
*|S (11#25 0.6900 0.5900)
CH1 MX20/M0#d VSS 8.43749e-19
CH2 MX17/M0#g VSS 1.72069e-17
CH3 11#25 VSS 1.07965e-17
CH4 11#24 VSS 3.13921e-18
CH5 11#22 VSS 1.061e-17
CH6 11#21 VSS 1.82634e-17
CH7 11#19 VSS 9.41375e-18
CH8 11#15 VSS 3.19792e-18
CH9 11#18 VSS 3.31011e-18
CH10 11 VSS 6.77794e-19
CH11 11 17 2.4106e-18
CH12 11#24 17 1.78244e-17
CH13 11#25 13 8.40042e-19
CH14 11#21 15 7.37621e-19
CH15 11#24 13 3.43328e-17
CH16 11#24 15 2.76306e-17
CH17 MX20/M0#d 13 2.40724e-17
CH18 11#25 VSS#6 4.49166e-18
CH19 MX17/M0#g VSS#2 4.38275e-18
CH20 MX17/M0#g VSS#15 4.30245e-18
CH21 11#18 VSS#15 4.04088e-18
CH22 11#15 VSS#15 4.02785e-18
CH23 11#15 VSS#7 3.4916e-18
CH24 11#15 VSS#6 3.45753e-18
CH25 11#25 VSS#7 3.16817e-18
CH26 11#21 VSS#2 2.99864e-18
CH27 11#24 MX19/M0#s 1.41873e-18
CH28 11#21 MX19/M0#s 1.54899e-17
CH29 11#18 MX19/M0#s 9.45008e-18
CH30 11#25 VSS#15 4.79247e-17
CH31 11#21 MX24/M0#s 5.14982e-17
CH32 11#21 VSS#15 7.73922e-17
CH33 11#19 MX24/M0#s 7.34603e-18
CH34 11#18 MX24/M0#s 7.38793e-18
CH35 MX17/M0#g MX24/M0#s 1.51416e-17
CH36 11#18 VSS#4 6.98319e-18
CH37 11#15 MX15/M0#s 9.52661e-18
CH38 11#22 MX24/M0#s 5.82623e-18
CH39 MX19/M0#d MX19/M0#s 1.4561e-17
CH40 11#25 MX15/M0#s 9.82872e-18
CH41 MX19/M0#d MX15/M0#s 1.44638e-17
CH42 MX24/M0#d MX19/M0#s 1.34014e-17
CH43 11#21 VSS#4 7.64618e-18
CH44 11#15 MX19/M0#s 9.45008e-18
CH45 MX24/M0#d MX24/M0#s 1.27525e-17
CH46 11#25 MX19/M0#s 1.48468e-17
RgH68 11 11#8 288.032410 $L=0.955 $W=0.15
RgH69 11#8 11#9 34.134449 $L=0.1645 $W=0.27
RgH70 11#9 MX17/M0#g 292.457947 $L=0.91 $W=0.15
RfH71 11#10 11#12 7.905882 $L=0.105 $W=0.17
RfH72 11#14 11#15 15.811765 $L=0.21 $W=0.17
RfH73 11#17 11#18 15.811765 $L=0.21 $W=0.17
ReH74 11#21 11#22 1.030175 $L=2.2 $W=0.23
ReH75 11#22 11#23 1.546572 $L=3.15 $W=0.23
ReH76 11#23 11#24 0.058244 $L=0.1445 $W=0.34
ReH77 11#21 11#25 0.467391 $L=0.86 $W=0.23
RhH78 MX19/M0#d 11#14 15.000000 $A=0.0289
RhH79 MX24/M0#d 11#17 15.000000 $A=0.0289
Rh_2_H80 MX20/M0#d 11#12 15.000000 $A=0.0289
RjH81 11#18 11#21 152.000000 $A=0.0289
RjH82 11#19 11#22 152.000000 $A=0.0289
RjH83 11#10 11#24 152.000000 $A=0.0289
RjH84 11#15 11#25 152.000000 $A=0.0289
RiH85 11#8 11#19 15.000000 $A=0.0289
RmwH86 MX16/M0#d MX24/M0#d 0.001000 $W=1000000
RmwH87 MX15/M0#d MX19/M0#d 0.001000 $W=1000000
RmwH88 MX18/M0#g 11 0.001000 $W=1000000
*
*|NET D 5.63363e-16
*|P (D X 0 0.9350 1.8850)
*|I (MX19/M0#g MX19/M0 g X 0 0.9050 0.8000)
*|I (MX20/M0#g MX20/M0 g X 0 0.4750 3.3900)
*|S (D#8 0.4750 2.8145)
*|S (D#9 0.4750 2.6500)
*|S (D#10 0.9000 1.5850)
*|S (D#11 0.9000 1.7500)
*|S (D#12 0.9200 1.7500)
*|S (D#13 0.9000 1.7500)
*|S (D#14 0.4750 2.6500)
*|S (D#15 0.9200 1.7500)
CD1 MX20/M0#g VSS 1.90408e-18
CD2 MX19/M0#g VSS 1.16447e-17
CD3 D#15 VSS 4.10903e-18
CD4 D#14 VSS 3.86121e-18
CD5 D#13 VSS 2.50463e-17
CD6 D VSS 3.76293e-18
CD7 D#14 13 6.98597e-18
CD8 MX20/M0#g 13 7.80118e-18
CD9 D#13 11#24 2.6332e-18
CD10 MX19/M0#g 11#15 2.26982e-18
CD11 MX19/M0#g 11#25 1.1952e-18
CD12 MX19/M0#g MX24/M0#d 8.22148e-19
CD13 D 11#19 7.64637e-19
CD14 D#15 11#25 1.53179e-17
CD15 MX20/M0#g 11#24 3.44971e-18
CD16 D#14 MX20/M0#d 7.86313e-18
CD17 D 11#24 2.59947e-17
CD18 D#13 11#25 4.95416e-18
CD19 MX19/M0#g MX19/M0#d 3.94263e-18
CD20 MX20/M0#g MX20/M0#d 8.88262e-18
CD21 D#13 MX19/M0#d 3.19374e-18
CD22 D#14 11#24 1.1578e-17
CD23 MX19/M0#g VSS#15 2.35969e-18
CD24 D#15 VSS#6 2.02228e-18
CD25 MX19/M0#g VSS#6 4.29097e-18
CD26 D#15 MX19/M0#s 4.03963e-18
CD27 MX19/M0#g MX19/M0#s 6.21239e-18
CD28 D#13 MX19/M0#s 4.18431e-18
CD29 MX20/M0#g VDD#8 2.29586e-18
CD30 D#14 VDD#4 9.61638e-19
CD31 D#13 VDD 5.82816e-18
CD32 MX20/M0#g VDD 1.54143e-17
CD33 MX20/M0#g VDD#4 6.32563e-18
CD34 D VDD 1.61899e-17
CD35 D#14 VDD 3.87337e-17
RgD24 MX20/M0#g D#8 184.811295 $L=0.575 $W=0.15
RgD25 D#8 D#9 34.134449 $L=0.1645 $W=0.27
RgD26 MX19/M0#g D#10 252.291290 $L=0.785 $W=0.15
RgD27 D#10 D#11 34.134449 $L=0.1645 $W=0.27
RfD28 D#12 D#13 1.505882 $L=0.02 $W=0.17
RfD29 D#13 D#14 88.468155 $L=1.325 $W=0.17
ReD30 D D#15 0.064904 $L=0.135 $W=0.26
RjD31 D#12 D#15 152.000000 $A=0.0289
RiD32 D#11 D#13 15.000000 $A=0.0289
RiD33 D#9 D#14 15.000000 $A=0.0289
*
*|NET A 5.2474e-16
*|P (A X 0 1.3950 1.4400)
*|I (MX16/M0#g MX16/M0 g X 0 1.3350 0.8000)
*|I (MX23/M0#g MX23/M0 g X 0 1.7650 3.3900)
*|S (A#8 1.3350 1.2900)
*|S (A#9 1.3350 1.1250)
*|S (A#10 1.3800 1.2900)
*|S (A#11 1.3350 1.2900)
*|S (A#12 1.3800 1.2900)
CA1 MX23/M0#g VSS 1.05181e-17
CA2 MX16/M0#g VSS 7.80779e-18
CA3 A#12 VSS 4.97668e-18
CA4 A#11 VSS 1.62897e-17
CA5 A VSS 6.98544e-18
CA6 A#11 MX17/M0#g 2.57971e-18
CA7 MX16/M0#g 11#18 2.26982e-18
CA8 A#12 MX19/M0#d 2.08189e-18
CA9 MX16/M0#g MX19/M0#d 8.31385e-19
CA10 A#12 MX24/M0#d 1.24722e-17
CA11 A#12 11#21 7.8961e-17
CA12 A#11 MX24/M0#d 1.11244e-17
CA13 A#11 11#24 2.67937e-18
CA14 MX16/M0#g MX24/M0#d 3.95177e-18
CA15 A 11#24 1.40621e-17
CA16 A 11#22 5.62554e-18
CA17 A#11 11#21 5.90109e-18
CA18 MX23/M0#g 11#22 5.97444e-18
CA19 MX16/M0#g VSS#15 2.35969e-18
CA20 MX16/M0#g VSS#4 2.25927e-18
CA21 MX16/M0#g MX24/M0#s 1.37329e-18
CA22 MX16/M0#g VSS#6 1.36531e-18
CA23 A#11 VSS#15 7.55083e-19
CA24 A#11 MX24/M0#s 5.87243e-18
CA25 A#12 MX24/M0#s 4.35509e-18
CA26 A MX24/M0#s 2.68691e-18
CA27 A#12 MX19/M0#s 8.72221e-18
CA28 A#11 MX19/M0#s 1.92486e-17
CA29 MX16/M0#g MX19/M0#s 6.22159e-18
CA30 MX23/M0#g VDD#4 5.2727e-18
CA31 MX23/M0#g VDD 1.61639e-17
CA32 MX23/M0#g MX23/M0#d 8.42278e-18
CA33 MX23/M0#g VDD#8 4.21087e-18
CA34 A D#13 6.51613e-18
CA35 A#12 D#15 4.90688e-18
CA36 A D 3.90353e-17
CA37 A#11 D#15 5.67357e-18
CA38 A D#15 4.59666e-17
CA39 A#12 C 1.46696e-17
CA40 A#11 C 2.66136e-18
CA41 A#11 C#10 3.40388e-18
CA42 MX23/M0#g B 1.81855e-18
CA43 A#11 B#14 2.9399e-18
CA44 A#11 B#13 6.55252e-18
CA45 A B#14 4.33302e-18
CA46 A B#13 2.8107e-17
CA47 A B#15 5.395e-17
CA48 A B 1.98236e-17
RgA1 MX23/M0#g A#8 751.593872 $L=2.53 $W=0.15
RgA2 A#8 A#9 34.134449 $L=0.1645 $W=0.27
RgA3 A#9 MX16/M0#g 104.477959 $L=0.325 $W=0.15
RfA4 A#10 A#11 3.388236 $L=0.045 $W=0.17
ReA5 A A#12 0.072115 $L=0.15 $W=0.26
RjA6 A#10 A#12 152.000000 $A=0.0289
RiA7 A#8 A#11 15.000000 $A=0.0289
*
*|NET Y 7.63166e-16
*|P (Y X 0 2.7750 2.1200)
*|I (MX17/M0#d MX17/M0 d X 0 2.3305 1.0100)
*|I (MX18/M0#d MX18/M0 d X 0 2.3305 3.0400)
*|S (Y#1 2.4700 3.3850)
*|S (Y#3 2.4700 3.0400)
*|S (Y#5 2.4700 1.0100)
*|S (Y#6 2.4700 0.6800)
*|S (Y#7 2.4700 3.3850)
*|S (Y#8 2.7600 3.3850)
*|S (Y#9 2.7600 0.6800)
*|S (Y#10 2.4700 0.6800)
CG1 MX18/M0#d VSS 3.72213e-18
CG2 Y#10 VSS 6.97703e-18
CG3 Y#9 VSS 5.07495e-17
CG4 Y#7 VSS 2.1174e-18
CG5 Y#8 VSS 1.29319e-18
CG6 Y#6 VSS 1.25253e-18
CG7 Y VSS 3.63811e-17
CG8 Y#7 11 1.73947e-18
CG9 Y#10 MX17/M0#g 1.51393e-18
CG10 Y#7 11#24 7.57909e-18
CG11 MX18/M0#d 11 2.23095e-17
CG12 Y#6 11#19 4.4269e-18
CG13 Y#8 11#22 3.67199e-17
CG14 Y 11#19 7.21682e-18
CG15 Y#6 11#22 4.16846e-18
CG16 Y 11#22 1.00338e-16
CG17 MX18/M0#d 11#19 1.15737e-17
CG18 Y#7 11#22 1.56772e-17
CG19 Y#9 11#21 2.76337e-17
CG20 Y#6 11#21 1.25574e-17
CG21 Y#9 11#22 1.16441e-17
CG22 Y#10 11#21 2.91013e-17
CG23 Y#6 MX17/M0#g 1.5176e-17
CG24 MX18/M0#d 11#22 1.90848e-17
CG25 Y#9 MX24/M0#s 3.78632e-18
CG26 Y#6 VSS#2 6.21801e-18
CG27 Y#10 VSS#2 5.46552e-18
CG28 Y#10 MX24/M0#s 5.38162e-18
CG29 Y#9 VSS#1 5.61521e-18
CG30 Y#6 MX24/M0#s 3.82513e-17
CG31 Y#10 VSS#15 2.16156e-17
CG32 Y#6 VSS#15 5.08997e-18
CG33 Y#9 VSS#15 2.46509e-17
RfG58 Y#1 Y#3 25.976471 $L=0.345 $W=0.17
RfG59 Y#5 Y#6 24.847057 $L=0.33 $W=0.17
ReG60 Y#7 Y#8 0.104021 $L=0.29 $W=0.29
ReG61 Y#8 Y 0.573517 $L=1.265 $W=0.26
ReG62 Y Y#9 0.657652 $L=1.44 $W=0.26
ReG63 Y#9 Y#10 0.104021 $L=0.29 $W=0.29
RhG64 MX17/M0#d Y#5 7.500000 $A=0.0578
Rh_2_G65 MX18/M0#d Y#3 5.000000 $A=0.0867
RjG66 Y#1 Y#7 152.000000 $A=0.0289
RjG67 Y#6 Y#10 152.000000 $A=0.0289
*
*|NET C 4.05278e-16
*|P (C X 0 0.4750 1.4600)
*|I (MX15/M0#g MX15/M0 g X 0 0.4750 0.8000)
*|I (MM0#g MM0 g X 0 0.9050 3.3900)
*|S (C#8 0.4600 1.2900)
*|S (C#9 0.4600 1.1250)
*|S (C#10 0.4600 1.2900)
*|S (C#12 0.4600 1.2900)
CC1 MM0#g VSS 1.54358e-17
CC2 MX15/M0#g VSS 1.34468e-17
CC3 C#10 VSS 2.17458e-17
CC4 C VSS 5.30706e-17
CC5 C#10 11#25 1.62622e-18
CC6 MM0#g MX20/M0#d 1.54511e-18
CC7 C#10 11#24 1.44459e-18
CC8 C MX20/M0#d 8.73062e-19
CC9 C 11#25 7.73654e-18
CC10 C 11#24 1.032e-17
CC11 C#10 MX19/M0#d 1.30621e-17
CC12 MX15/M0#g MX19/M0#d 4.52329e-18
CC13 MM0#g 11#24 3.10712e-18
CC14 C MX19/M0#d 8.08914e-18
CC15 MX15/M0#g 11#15 2.52486e-18
CC16 C#10 VSS#15 1.88289e-18
CC17 C VSS#7 1.82605e-18
CC18 MX15/M0#g MX19/M0#s 1.50872e-18
CC19 MX15/M0#g VSS#15 2.67065e-18
CC20 MX15/M0#g VSS#7 3.64084e-18
CC21 C#10 MX15/M0#s 1.4581e-17
CC22 C VSS#15 8.72707e-18
CC23 C MX15/M0#s 1.78445e-17
CC24 MX15/M0#g MX15/M0#s 8.15701e-18
CC25 C MX19/M0#s 2.74591e-18
CC26 MM0#g VDD#4 5.2727e-18
CC27 MM0#g VDD#8 2.9177e-18
CC28 C VDD 6.1129e-18
CC29 MM0#g VDD 1.29101e-17
CC30 MM0#g D#13 9.90953e-19
CC31 C#10 D#13 9.5232e-18
CC32 C D#14 7.01083e-18
CC33 C D#13 2.12881e-17
CC34 C D 3.8667e-17
CC35 C#10 D#15 4.51705e-18
CC36 MM0#g D 2.52335e-18
CC37 C D#15 5.0674e-17
RgC18 MM0#g C#8 751.593872 $L=2.53 $W=0.15
RgC19 C#8 C#9 34.134449 $L=0.1645 $W=0.27
RgC20 C#9 MX15/M0#g 104.477959 $L=0.325 $W=0.15
ReC21 C C#12 0.081731 $L=0.17 $W=0.26
RjC22 C#10 C#12 152.000000 $A=0.0289
RiC23 C#8 C#10 15.000000 $A=0.0289
*
*|NET 17 1.17785e-16
*|I (MX25/M0#d MX25/M0 d X 0 1.4105 3.3900)
*|I (MX23/M0#s MX23/M0 s X 0 1.6895 3.3900)
*|S (17 1.5500 3.3450)
CJ1 17 VSS 1.10967e-17
RmwJ93 MX25/M0#d 17 0.001000 $W=1000000
RmwJ94 MX23/M0#s 17 0.001000 $W=1000000
*
*|NET VDD 9.04885e-16
*|P (VDD X 0 1.5250 4.1450)
*|I (MX23/M0#d MX23/M0 d X 0 1.8405 3.3900)
*|I (MX18/M0#s MX18/M0 s X 0 2.1795 3.0400)
*|S (VDD#1 3.2195 4.1400)
*|S (VDD#2 2.0400 4.1400)
*|S (VDD#3 1.6100 4.1400)
*|S (VDD#4 1.6100 4.1400)
*|S (VDD#7 2.0400 3.0400)
*|S (VDD#8 1.6100 4.1400)
CE1 MX23/M0#d VSS 3.55258e-18
CE2 VDD#8 VSS 2.41096e-18
CE3 VDD#2 VSS 1.58492e-18
CE4 VDD#4 VSS 5.85201e-18
CE5 VDD VSS 8.14444e-19
CE6 VDD#8 17 6.31545e-18
CE7 MX23/M0#d 17 2.81484e-17
CE8 VDD#4 17 8.56632e-18
CE9 VDD#4 15 1.03129e-17
CE10 VDD#8 15 3.57909e-18
CE11 VDD#4 13 1.03129e-17
CE12 VDD#8 13 5.43218e-18
CE13 VDD#2 11#22 2.47751e-18
CE14 MX23/M0#d 11#24 1.9285e-18
CE15 VDD#8 11#24 8.82416e-17
CE16 VDD#8 11 4.6516e-18
CE17 MX23/M0#d 11#22 4.80534e-17
CE18 VDD#4 11#24 1.90067e-17
CE19 MX23/M0#d 11#19 9.13923e-18
CE20 MX23/M0#d 11 2.17831e-17
CE21 VDD#2 11 5.35471e-18
CE22 VDD 11 1.39734e-17
CE23 VDD#8 11#22 2.11373e-17
CE24 VDD#8 MX20/M0#d 4.9181e-18
CE25 VDD 11#24 6.66174e-17
CE26 VDD 11#22 7.76043e-18
CE27 VDD MX20/M0#d 1.78749e-17
CE28 VDD#4 MX20/M0#d 1.03096e-17
CE29 VDD 11#19 5.42756e-18
CE30 MX23/M0#d Y#8 2.87165e-18
CE31 VDD Y#7 2.72306e-18
CE32 MX23/M0#d Y 2.03604e-18
CE33 MX23/M0#d MX18/M0#d 5.5868e-17
CE34 MX23/M0#d Y#7 5.69374e-18
CE35 VDD#1 Y#8 5.60084e-18
CE36 VDD Y 3.06941e-17
CE37 VDD#2 Y#7 4.9015e-18
CE38 VDD Y#8 4.54401e-17
CE39 VDD#8 Y#7 1.98576e-17
CE40 VDD#2 MX18/M0#d 7.63534e-18
CE41 VDD#8 Y#8 2.13697e-17
CE42 VDD#8 MX18/M0#d 6.04361e-18
CE43 VDD MX18/M0#d 5.40302e-18
RfE34 VDD#1 VDD#2 60.115208 $L=1.1795 $W=0.25
RfE35 VDD#2 VDD#3 21.740810 $L=0.43 $W=0.25
RfE36 VDD#2 VDD#7 76.215675 $L=1.1 $W=0.17
ReE37 VDD#8 VDD 0.026563 $L=0.085 $W=0.4
Rh_1_E38 VDD#4 VDD#3 2.500000 $A=0.1734
Rh_2_E39 MX23/M0#d VDD#7 5.000000 $A=0.0867
RjE40 VDD#3 VDD#8 25.333334 $A=0.1734
RmwE41 MX18/M0#s MX23/M0#d 0.001000 $W=1000000
*
*Instance Section
*
MX24/M0	MX24/M0#d	MX24/M0#g	MX24/M0#s	VSS	nfet_01v8
+ L=1.5e-07	W=4.2e-07
MX19/M0	MX19/M0#d	MX19/M0#g	MX19/M0#s	VSS	nfet_01v8
+ L=1.5e-07	W=4.2e-07
MX17/M0	MX17/M0#d	MX17/M0#g	MX17/M0#s	VSS	nfet_01v8
+ L=1.5e-07	W=8.4e-07
MX16/M0	MX16/M0#d	MX16/M0#g	MX16/M0#s	VSS	nfet_01v8
+ L=1.5e-07	W=4.2e-07
MX15/M0	MX15/M0#d	MX15/M0#g	MX15/M0#s	VSS	nfet_01v8
+ L=1.5e-07	W=4.2e-07
MX25/M0	MX25/M0#d	MX25/M0#g	MX25/M0#s	VDD	pfet_01v8_hvt
+ L=1.5e-07	W=5.4e-07
MX23/M0	MX23/M0#d	MX23/M0#g	MX23/M0#s	VDD	pfet_01v8_hvt
+ L=1.5e-07	W=5.4e-07
MX20/M0	MX20/M0#d	MX20/M0#g	MX20/M0#s	VDD	pfet_01v8_hvt
+ L=1.5e-07	W=5.4e-07
MX18/M0	MX18/M0#d	MX18/M0#g	MX18/M0#s	VDD	pfet_01v8_hvt
+ L=1.5e-07	W=1.24e-06
MM0	MM0#d	MM0#g	MM0#s	VDD	pfet_01v8_hvt	L=1.5e-07
+ W=5.4e-07
.ENDS
