*
*|DSPF 1.5
*
*|DATE "Fri Feb 28 12:16:35 2025"
*|VENDOR "Cadence Design Systems"
*|PROGRAM "Cadence Quantus Extraction"
*|VERSION "22.1.0-p089 Linux 64 bit - (Thu Jan 19 11:47:08 PST 2023)"
*|DESIGN "SDFFSRX4_LP"
*|DIVIDER /
*|DELIMITER #
*|DeviceFingerDelim "@"
*|BUSBIT []
*|GLOBAL_TEMPERATURE 25
*|OPERATING_TEMPERATURE 25
** QRC_TECH_DIR /vols/wfo_devel/projects/reference_SKY130/tech/sky130_release_0.0.4/quantus/extraction/typical 
** HIERARCHICAL_SPLIT_PINS_DELIMITER '%'
** caps2d version: 10
*
.SUBCKT  SDFFSRX4_LP CK D Q QN RN SE SI SN VDD VSS
*
*Net Section
*
*|GROUND_NET VSS
*
*|NET VSS 5.37599e-15
*|P (VSS X 0 9.4400 0.0050)
*|I (MX142/M0#s MX142/M0 s X 0 12.3305 0.8000)
*|I (MX142/M1#d MX142/M1 d X 0 11.7495 0.8000)
*|I (MX125/M0#s MX125/M0 s X 0 13.5595 0.8000)
*|I (MX125/M1#d MX125/M1 d X 0 14.1405 0.8000)
*|I (MX125/M2#s MX125/M2 s X 0 14.4195 0.8000)
*|I (MX125/M3#d MX125/M3 d X 0 15.0005 0.8000)
*|I (MX123/M0#s MX123/M0 s X 0 15.2795 0.8000)
*|I (MX123/M1#d MX123/M1 d X 0 15.8605 0.8000)
*|I (MX123/M2#s MX123/M2 s X 0 16.1395 0.8000)
*|I (MX123/M3#d MX123/M3 d X 0 16.7205 0.8000)
*|I (MX110/M0#s MX110/M0 s X 0 7.6395 0.8000)
*|I (MX109/M0#s MX109/M0 s X 0 5.8295 0.8000)
*|I (MX103/M0#s MX103/M0 s X 0 11.4105 0.8000)
*|I (MX97/M0#s MX97/M0 s X 0 3.6505 0.8000)
*|I (MX96/M0#s MX96/M0 s X 0 0.5505 0.8000)
*|I (MX94/M0#s MX94/M0 s X 0 13.2805 0.8000)
*|I (MX93/M0#s MX93/M0 s X 0 3.9295 0.8000)
*|I (MX92/M0#s MX92/M0 s X 0 2.5495 0.8000)
*|I (MX91/M0#s MX91/M0 s X 0 0.8295 0.8000)
*|I (MX84/M0#s MX84/M0 s X 0 2.2705 0.8000)
*|S (VSS#1 17.4795 0.0000)
*|S (VSS#2 16.8600 0.0000)
*|S (VSS#3 16.0000 0.0000)
*|S (VSS#4 15.6400 0.0000)
*|S (VSS#5 15.6400 0.0000)
*|S (VSS#7 15.1400 0.0000)
*|S (VSS#8 14.2800 0.0000)
*|S (VSS#9 13.4200 0.0000)
*|S (VSS#10 12.4700 0.0000)
*|S (VSS#11 11.6100 0.0000)
*|S (VSS#12 10.5800 0.0000)
*|S (VSS#14 7.5000 0.0000)
*|S (VSS#15 5.6900 0.0000)
*|S (VSS#16 3.6800 0.0000)
*|S (VSS#19 16.8600 0.8000)
*|S (VSS#21 16.0000 0.8000)
*|S (VSS#23 15.1400 0.8000)
*|S (VSS#25 14.2800 0.8000)
*|S (VSS#27 13.4200 0.8000)
*|S (VSS#29 12.4700 0.8000)
*|S (VSS#31 11.6100 0.8000)
*|S (VSS#33 7.5000 0.8000)
*|S (VSS#35 5.6900 0.8000)
*|S (VSS#36 2.4100 0.0000)
*|S (VSS#37 0.6900 0.0000)
*|S (VSS#38 0.0000 0.0000)
*|S (VSS#40 3.7900 0.8000)
*|S (VSS#42 2.4100 0.8000)
*|S (VSS#44 0.6900 0.8000)
*|S (VSS#45 15.6400 0.0000)
*|S (VSS#46 10.5800 0.0000)
*|S (VSS#47 3.6800 0.0000)
RfI164 VSS#1 VSS#2 31.443211 $L=0.6195 $W=0.25
RfI165 VSS#2 VSS#3 43.481621 $L=0.86 $W=0.25
RfI166 VSS#3 VSS#4 18.156811 $L=0.36 $W=0.25
RfI167 VSS#4 VSS#7 25.324810 $L=0.5 $W=0.25
RfI168 VSS#7 VSS#8 43.481621 $L=0.86 $W=0.25
RfI169 VSS#8 VSS#9 43.481621 $L=0.86 $W=0.25
RfI170 VSS#9 VSS#10 48.089619 $L=0.95 $W=0.25
RfI171 VSS#10 VSS#11 43.481621 $L=0.86 $W=0.25
RfI172 VSS#11 VSS#12 52.460812 $L=1.03 $W=0.25
RfI173 VSS#12 VSS#14 157.420807 $L=3.08 $W=0.25
RfI174 VSS#14 VSS#15 92.121620 $L=1.81 $W=0.25
RfI175 VSS#15 VSS#16 102.636810 $L=2.01 $W=0.25
RfI176 VSS#2 VSS#19 53.627445 $L=0.8 $W=0.17
RfI177 VSS#3 VSS#21 53.627445 $L=0.8 $W=0.17
RfI178 VSS#7 VSS#23 53.627445 $L=0.8 $W=0.17
RfI179 VSS#8 VSS#25 53.627445 $L=0.8 $W=0.17
RfI180 VSS#9 VSS#27 53.627445 $L=0.8 $W=0.17
RfI181 VSS#10 VSS#29 53.627445 $L=0.8 $W=0.17
RfI182 VSS#11 VSS#31 53.627445 $L=0.8 $W=0.17
RfI183 VSS#14 VSS#33 53.627445 $L=0.8 $W=0.17
RfI184 VSS#15 VSS#35 53.627445 $L=0.8 $W=0.17
RfI185 VSS#16 VSS#36 64.748810 $L=1.27 $W=0.25
RfI186 VSS#36 VSS#37 87.513618 $L=1.72 $W=0.25
RfI187 VSS#37 VSS#38 35.052811 $L=0.69 $W=0.25
RfI188 VSS#16 VSS#40 57.223530 $L=0.8 $W=0.17
RfI189 VSS#36 VSS#42 53.627445 $L=0.8 $W=0.17
RfI190 VSS#37 VSS#44 53.627445 $L=0.8 $W=0.17
ReI191 VSS#45 VSS#46 1.581250 $L=5.06 $W=0.4
ReI192 VSS#46 VSS 0.356250 $L=1.14 $W=0.4
ReI193 VSS VSS#47 1.800000 $L=5.76 $W=0.4
RhI194 MX123/M3#d VSS#19 15.000000 $A=0.0289
RhI195 MX123/M1#d VSS#21 15.000000 $A=0.0289
RhI196 MX125/M3#d VSS#23 15.000000 $A=0.0289
RhI197 MX125/M1#d VSS#25 15.000000 $A=0.0289
RhI198 MX125/M0#s VSS#27 15.000000 $A=0.0289
RhI199 MX142/M0#s VSS#29 15.000000 $A=0.0289
RhI200 MX142/M1#d VSS#31 15.000000 $A=0.0289
RhI201 MX110/M0#s VSS#33 15.000000 $A=0.0289
RhI202 MX109/M0#s VSS#35 15.000000 $A=0.0289
RhI203 MX97/M0#s VSS#40 15.000000 $A=0.0289
RhI204 MX92/M0#s VSS#42 15.000000 $A=0.0289
RhI205 MX96/M0#s VSS#44 15.000000 $A=0.0289
Rh_3_I206 VSS#5 VSS#4 2.142857 $A=0.2023
Rh_3_I207 VSS#5 VSS#12 1.000000 $A=0.4335
Rh_3_I208 VSS#5 VSS#16 1.000000 $A=0.4335
RjI209 VSS#4 VSS#45 21.714285 $A=0.2023
RjI210 VSS#12 VSS#46 10.133333 $A=0.4335
RjI211 VSS#16 VSS#47 10.133333 $A=0.4335
RmwI212 MX125/M2#s MX125/M1#d 0.001000 $W=1000000
RmwI213 MX123/M0#s MX125/M3#d 0.001000 $W=1000000
RmwI214 MX123/M2#s MX123/M1#d 0.001000 $W=1000000
RmwI215 MX103/M0#s MX142/M1#d 0.001000 $W=1000000
RmwI216 MX94/M0#s MX125/M0#s 0.001000 $W=1000000
RmwI217 MX93/M0#s MX97/M0#s 0.001000 $W=1000000
RmwI218 MX91/M0#s MX96/M0#s 0.001000 $W=1000000
RmwI219 MX84/M0#s MX92/M0#s 0.001000 $W=1000000
*
*|NET RN 6.53213e-16
*|P (RN X 0 3.6950 1.8800)
*|I (MX93/M0#g MX93/M0 g X 0 4.0050 0.8000)
*|I (MX89/M0#g MX89/M0 g X 0 4.0050 3.2800)
*|S (RN#8 4.0050 1.9700)
*|S (RN#9 4.0050 1.8050)
*|S (RN#10 4.0050 1.9700)
*|S (RN#11 3.6800 1.9700)
*|S (RN#12 3.6800 1.9700)
CE1 MX89/M0#g VSS 3.05918e-18
CE2 MX93/M0#g VSS 2.15998e-17
CE3 RN#12 VSS 2.0175e-18
CE4 RN#10 VSS 9.76335e-18
CE5 RN#11 VSS 1.10321e-17
CE6 RN VSS 5.18268e-18
CE7 RN#10 5#29 1.22487e-17
CE8 MX93/M0#g MX93/M0#d 7.13214e-18
CE9 RN 5#30 5.20715e-17
CE10 RN 5#29 1.24361e-17
CE11 MX89/M0#g 5#21 7.80226e-18
CE12 RN#12 5#29 2.93011e-17
CE13 MX89/M0#g 5#27 5.74001e-18
CE14 MX89/M0#g 4#24 1.53964e-18
CE15 RN#10 4#30 8.51624e-18
CE16 RN#10 4#31 2.318e-17
CE17 MX89/M0#g 4#31 3.65342e-18
CE18 RN#12 4#34 5.47603e-17
CE19 RN 4#34 4.96065e-17
CE20 RN#11 4#31 2.98e-17
CE21 RN 4#33 6.87512e-17
CE22 RN#12 4#31 2.05831e-17
CE23 RN#11 4#34 7.63094e-18
CE24 RN#11 3#44 2.07158e-18
CE25 RN#12 3 7.20162e-18
CE26 RN#10 3#41 3.20034e-17
CE27 RN MX97/M0#g 3.93137e-18
CE28 RN 3#41 1.89588e-17
CE29 RN#11 3#41 3.00289e-17
CE30 RN#10 2#19 3.01365e-18
CE31 MX89/M0#g 2#9 2.01122e-18
CE32 MX93/M0#g MX107/M0#d 1.76427e-18
CE33 RN#11 2#16 1.62116e-18
CE34 RN 2#13 1.97873e-17
CE35 MX93/M0#g 2#13 7.09072e-18
CE36 MX93/M0#g VSS#5 3.62964e-18
CE37 RN VSS#47 1.25368e-17
CE38 MX93/M0#g VSS#47 4.8201e-18
CE39 RN MX97/M0#s 7.47713e-18
CE40 MX93/M0#g MX97/M0#s 7.57466e-18
CE41 MX89/M0#g VDD#5 4.04914e-18
CE42 MX89/M0#g VDD#49 5.21861e-18
CE43 RN#12 VDD 3.89087e-18
CE44 MX89/M0#g VDD 1.26147e-17
CE45 MX89/M0#g MX89/M0#s 9.16933e-18
CE46 RN#12 MX89/M0#s 5.34038e-18
RgE59 MX89/M0#g RN#8 402.105774 $L=1.31 $W=0.15
RgE60 RN#8 RN#9 34.134449 $L=0.1645 $W=0.27
RgE61 RN#9 MX93/M0#g 322.984650 $L=1.005 $W=0.15
RfE62 RN#10 RN#11 24.470589 $L=0.325 $W=0.17
ReE63 RN#12 RN 0.043269 $L=0.09 $W=0.26
RjE64 RN#11 RN#12 152.000000 $A=0.0289
RiE65 RN#8 RN#10 15.000000 $A=0.0289
*
*|NET SE 7.26332e-16
*|P (SE X 0 0.9350 1.8500)
*|I (MX108/M0#g MX108/M0 g X 0 1.7650 0.8000)
*|I (MX96/M0#g MX96/M0 g X 0 0.4750 0.8000)
*|I (MX117/M0#g MX117/M0 g X 0 1.3350 3.2800)
*|I (MX85/M0#g MX85/M0 g X 0 0.4750 3.2800)
*|S (SE#15 0.4750 2.1700)
*|S (SE#16 0.4750 2.0050)
*|S (SE#17 1.4595 2.0800)
*|S (SE#18 1.3250 2.1700)
*|S (SE#19 1.3250 2.3345)
*|S (SE#20 1.3250 2.1700)
*|S (SE#21 1.1400 2.1050)
*|S (SE#22 0.9200 2.0400)
*|S (SE#23 0.6595 2.1050)
*|S (SE#24 0.4750 2.1700)
*|S (SE#25 0.9200 2.0400)
CF1 MX85/M0#g VSS 8.0843e-19
CF2 MX117/M0#g VSS 5.50265e-18
CF3 MX96/M0#g VSS 1.70627e-17
CF4 MX108/M0#g VSS 2.46538e-17
CF5 SE#24 VSS 7.35156e-18
CF6 SE#21 VSS 6.33321e-18
CF7 SE#22 VSS 3.12614e-18
CF8 SE VSS 1.2416e-17
CF9 MX117/M0#g 49 7.72091e-18
CF10 MX108/M0#g 47 1.28937e-18
CF11 SE 47 1.60217e-17
CF12 MX85/M0#g 49 2.65529e-18
CF13 SE#21 49 5.30056e-18
CF14 MX96/M0#g 47 1.80831e-18
CF15 SE#21 2#3 2.30451e-18
CF16 MX108/M0#g 2#17 1.37309e-18
CF17 SE#21 2#16 1.34632e-17
CF18 SE 2#17 1.04443e-17
CF19 SE 2#16 7.01075e-17
CF20 MX108/M0#g MX111/M0#d 6.2356e-18
CF21 SE#21 2#15 1.53247e-17
CF22 SE 2#14 7.73579e-18
CF23 MX108/M0#g 2#14 9.74442e-18
CF24 MX117/M0#g 2#3 6.79664e-18
CF25 SE#24 1#14 3.17649e-18
CF26 MX96/M0#g 1#24 2.17418e-18
CF27 SE#22 1#19 1.99391e-18
CF28 MX85/M0#g 1#22 1.85035e-18
CF29 SE MX96/M0#d 1.81554e-18
CF30 MX108/M0#g 1#18 1.80521e-18
CF31 SE#21 MX111/M0#g 1.30519e-18
CF32 SE#21 1#18 2.41898e-17
CF33 SE#21 1#21 1.91659e-17
CF34 SE 1#19 9.96943e-18
CF35 SE 1#24 2.10902e-17
CF36 SE 1#23 5.59966e-17
CF37 MX96/M0#g 1#19 4.76755e-18
CF38 MX85/M0#g 1#14 8.88823e-18
CF39 SE 1#18 2.65598e-17
CF40 MX96/M0#g MX96/M0#d 8.12962e-18
CF41 SE#22 1#18 1.27036e-17
CF42 SE#24 1#19 2.74619e-17
CF43 SE#24 1#23 3.97529e-17
CF44 MX96/M0#g MX96/M0#s 8.41205e-18
CF45 MX96/M0#g VSS#47 4.8201e-18
CF46 MX108/M0#g VSS#36 4.86113e-18
CF47 MX96/M0#g VSS#37 3.81991e-18
CF48 SE MX96/M0#s 6.52992e-18
CF49 MX108/M0#g VSS#47 4.8201e-18
CF50 SE VSS#47 1.54993e-17
CF51 SE#21 VDD#49 2.89978e-18
CF52 SE#22 VDD 2.44277e-18
CF53 SE#24 VDD#49 2.10359e-18
CF54 MX117/M0#g VDD#43 5.77573e-18
CF55 MX85/M0#g VDD#49 5.21861e-18
CF56 MX85/M0#g MX98/M0#s 9.07616e-18
CF57 MX85/M0#g VDD#43 4.31255e-18
CF58 MX85/M0#g VDD 1.18256e-17
CF59 SE#24 VDD 1.67882e-17
CF60 MX117/M0#g VDD#49 5.21861e-18
CF61 SE#24 MX98/M0#s 5.06943e-18
CF62 SE#21 VDD 1.1832e-17
CF63 MX117/M0#g VDD 1.31909e-17
RgF66 MX85/M0#g SE#15 337.839081 $L=1.11 $W=0.15
RgF67 SE#15 SE#16 34.134449 $L=0.1645 $W=0.27
RgF68 SE#16 MX96/M0#g 387.251282 $L=1.205 $W=0.15
RgF69 MX108/M0#g SE#17 488.084229 $L=1.585 $W=0.15
RgF70 SE#17 SE#18 21.669903 $L=0.1345 $W=0.3
RgF71 SE#18 SE#19 29.411320 $L=0.1645 $W=0.27
RgF72 SE#19 MX117/M0#g 303.704620 $L=0.945 $W=0.15
RfF73 SE#20 SE#21 7.882667 $L=0.1845 $W=0.3
RfF74 SE#21 SE#22 16.575373 $L=0.22 $W=0.17
RfF75 SE#22 SE#23 19.587137 $L=0.26 $W=0.17
RfF76 SE#23 SE#24 9.233458 $L=0.1845 $W=0.3
ReF77 SE SE#25 0.091346 $L=0.19 $W=0.26
RjF78 SE#22 SE#25 152.000000 $A=0.0289
RiF79 SE#18 SE#20 15.000000 $A=0.0289
RiF80 SE#15 SE#24 15.000000 $A=0.0289
*
*|NET SI 5.08543e-16
*|P (SI X 0 2.3150 1.4650)
*|I (MX84/M0#g MX84/M0 g X 0 2.1950 0.8000)
*|I (MX119/M0#g MX119/M0 g X 0 2.1950 3.2800)
*|S (SI#8 2.2050 1.6900)
*|S (SI#9 2.2050 1.5250)
*|S (SI#10 2.3000 1.6900)
*|S (SI#11 2.2050 1.6900)
*|S (SI#12 2.3000 1.6900)
CG1 MX119/M0#g VSS 1.75448e-18
CG2 MX84/M0#g VSS 1.80501e-17
CG3 SI#12 VSS 8.3085e-18
CG4 SI#11 VSS 1.44052e-17
CG5 MX84/M0#g 51 6.21439e-18
CG6 SI#12 51 1.06624e-17
CG7 MX119/M0#g 53 7.72091e-18
CG8 SI#11 53 2.95921e-18
CG9 MX119/M0#g 3#33 1.43725e-18
CG10 SI#12 3#44 5.22183e-17
CG11 SI#12 3#45 4.07179e-17
CG12 SI#11 3#42 1.10648e-17
CG13 SI#12 MX92/M0#d 4.0932e-18
CG14 SI#12 3#42 4.83769e-18
CG15 SI#11 3#44 4.12157e-18
CG16 MX119/M0#g 2#3 1.43725e-18
CG17 SI#11 2#14 2.50513e-17
CG18 MX84/M0#g 2#14 6.21715e-18
CG19 SI#12 MX111/M0#d 2.82196e-18
CG20 SI#12 2#17 1.95114e-17
CG21 SI#11 2#16 3.04075e-18
CG22 SI#12 2#14 2.8014e-17
CG23 SI#12 2#16 4.05837e-17
CG24 SI#12 1#18 1.00039e-17
CG25 SI#11 1#18 2.45115e-17
CG26 SI#12 VSS#36 2.44082e-18
CG27 MX84/M0#g MX92/M0#s 7.18108e-18
CG28 SI#12 MX92/M0#s 2.38986e-17
CG29 MX84/M0#g VSS#36 3.62964e-18
CG30 MX84/M0#g VSS#47 2.99865e-18
CG31 SI#12 VSS#47 1.99908e-17
CG32 MX119/M0#g VDD 1.26925e-17
CG33 MX119/M0#g VDD#49 3.34952e-18
CG34 MX119/M0#g MX119/M0#s 8.68062e-18
CG35 MX119/M0#g VDD#40 4.31255e-18
RgG81 MX119/M0#g SI#8 487.355530 $L=1.59 $W=0.15
RgG82 SI#8 SI#9 34.134449 $L=0.1645 $W=0.27
RgG83 SI#9 MX84/M0#g 233.011292 $L=0.725 $W=0.15
RfG84 SI#10 SI#11 7.152941 $L=0.095 $W=0.17
ReG85 SI SI#12 0.108173 $L=0.225 $W=0.26
RjG86 SI#10 SI#12 152.000000 $A=0.0289
RiG87 SI#8 SI#11 15.000000 $A=0.0289
*
*|NET SN 2.41894e-15
*|P (SN X 0 5.5350 1.5850)
*|I (MX109/M0#g MX109/M0 g X 0 5.9050 0.8000)
*|I (MX103/M0#g MX103/M0 g X 0 11.3350 0.8000)
*|I (MX104/M0#g MX104/M0 g X 0 6.3350 3.2800)
*|I (MX87/M0#g MX87/M0 g X 0 10.8150 3.2800)
*|S (SN#15 5.8900 1.2900)
*|S (SN#16 5.8900 1.1250)
*|S (SN#17 11.2750 2.2250)
*|S (SN#18 11.2750 2.3900)
*|S (SN#19 11.1400 2.4050)
*|S (SN#20 5.8900 1.2900)
*|S (SN#21 5.5200 1.2900)
*|S (SN#22 11.2750 2.3900)
*|S (SN#24 5.5900 2.3845)
*|S (SN#25 5.6750 3.5700)
*|S (SN#26 11.3525 2.5345)
*|S (SN#27 11.2750 2.3900)
*|S (SN#28 5.5200 1.2900)
CG36 MX87/M0#g VSS 1.00572e-17
CG37 MX104/M0#g VSS 9.36836e-18
CG38 MX103/M0#g VSS 1.65961e-17
CG39 MX109/M0#g VSS 1.91254e-17
CG40 SN#27 VSS 2.02973e-17
CG41 SN#25 VSS 2.39779e-17
CG42 SN#24 VSS 1.68533e-18
CG43 SN#22 VSS 3.33682e-18
CG44 SN#20 VSS 7.58948e-18
CG45 SN#21 VSS 2.14924e-17
CG46 SN VSS 1.4156e-17
CG47 MX103/M0#g 68#4 1.90627e-18
CG48 MX103/M0#g 68#7 8.31436e-19
CG49 MX109/M0#g 69#8 1.01535e-18
CG50 MX109/M0#g 69#3 6.53154e-18
CG51 SN#20 69#8 3.11281e-18
CG52 SN#27 68#7 4.98643e-18
CG53 SN#20 69#3 8.23535e-18
CG54 MX103/M0#g MX122/M0#s 4.6277e-18
CG55 MX87/M0#g 61 1.55222e-18
CG56 SN#25 57 2.55122e-17
CG57 MX87/M0#g 67#6 8.09685e-18
CG58 SN#27 67#8 9.84991e-17
CG59 SN#27 67#6 2.26106e-17
CG60 SN#27 67#3 1.14971e-17
CG61 MX104/M0#g 55 1.64038e-18
CG62 SN#27 61 1.90297e-17
CG63 SN#25 55 2.56005e-17
CG64 SN#27 67#9 5.61249e-17
CG65 SN#27 9#52 9.73541e-18
CG66 SN#22 9#59 7.80796e-18
CG67 MX103/M0#g 9#54 7.59402e-18
CG68 SN#27 9#59 7.80267e-17
CG69 SN#22 8#30 5.07527e-18
CG70 SN#27 8#23 9.61961e-18
CG71 SN#22 8#27 2.66595e-17
CG72 SN#27 8#27 1.35487e-17
CG73 SN#27 8#29 4.88347e-17
CG74 SN#20 7#22 7.93924e-18
CG75 MX104/M0#g 7#13 7.38985e-18
CG76 SN#24 7#27 7.34763e-18
CG77 SN#20 7#27 5.12479e-18
CG78 SN#25 7#13 9.90911e-18
CG79 SN#25 7#26 5.67604e-17
CG80 SN#24 7#26 2.37569e-17
CG81 SN 7#27 2.71107e-17
CG82 SN#25 7#16 1.08551e-17
CG83 SN#25 7#28 4.88347e-17
CG84 SN#21 6#27 6.75524e-18
CG85 SN#24 6#28 6.16932e-17
CG86 SN#24 6#25 1.27518e-17
CG87 SN#25 6#13 1.11927e-17
CG88 SN#25 6#19 1.08925e-17
CG89 SN#25 6#32 5.08181e-17
CG90 SN 6#25 1.53858e-17
CG91 SN 6#28 7.48656e-17
CG92 SN 6#27 4.7217e-17
CG93 SN#25 6#29 4.13838e-17
CG94 SN#24 6#29 2.5244e-17
CG95 MX104/M0#g 5#26 7.5633e-18
CG96 SN#24 5#26 1.86885e-17
CG97 SN#24 5#27 1.99692e-17
CG98 SN#27 5#25 1.52812e-17
CG99 SN#25 5#26 2.45347e-17
CG100 SN#27 4#28 7.82523e-18
CG101 SN#25 4#29 7.62289e-18
CG102 SN#24 4#30 3.0547e-17
CG103 SN#20 3#40 3.45854e-17
CG104 SN#21 3#40 3.13112e-17
CG105 SN 3#40 2.82182e-17
CG106 SN#20 MX109/M0#s 9.93474e-18
CG107 SN MX109/M0#s 9.56289e-18
CG108 MX109/M0#g MX109/M0#s 8.57954e-18
CG109 MX103/M0#g MX142/M1#d 6.94574e-18
CG110 MX103/M0#g VSS#11 5.74683e-18
CG111 MX109/M0#g VSS#47 3.995e-18
CG112 MX109/M0#g VSS#15 3.64084e-18
CG113 MX103/M0#g VSS#46 2.68374e-18
CG114 SN#21 VSS#47 2.50869e-18
CG115 SN VSS#47 1.51517e-17
CG116 SN#21 MX109/M0#s 1.21504e-17
CG117 MX104/M0#g MX104/M0#s 9.78616e-18
CG118 MX87/M0#g VDD 8.56026e-18
CG119 MX87/M0#g MX100/M0#s 8.10659e-18
CG120 SN#27 VDD#11 7.73562e-18
CG121 MX104/M0#g VDD 7.30837e-18
CG122 MX87/M0#g VDD#5 4.31255e-18
CG123 SN#24 VDD 3.85039e-18
CG124 MX104/M0#g VDD#33 3.72251e-18
CG125 SN#25 MX89/M0#s 3.33126e-18
CG126 SN#27 MX138/M1#d 2.61206e-18
CG127 SN#25 VDD#30 2.97362e-17
CG128 SN#25 MX104/M0#s 4.41966e-17
CG129 SN#27 MX138/M0#s 4.16602e-17
CG130 SN#25 MX120/M0#s 3.00934e-17
CG131 SN#22 VDD 2.24998e-17
CG132 SN#27 MX100/M0#s 2.74053e-17
CG133 SN#27 VDD#48 1.95006e-16
CG134 SN#27 VDD 6.36919e-17
CG135 SN#27 VDD#5 2.45535e-17
CG136 SN#25 VDD 4.21708e-17
CG137 SN#25 VDD#49 1.40193e-16
CG138 SN#25 VDD#33 1.61441e-17
CG139 SN#25 VDD#48 1.55995e-16
RgG88 MX104/M0#g SN#15 716.247192 $L=2.42 $W=0.15
RgG89 SN#15 SN#16 34.134449 $L=0.1645 $W=0.27
RgG90 SN#16 MX109/M0#g 104.477959 $L=0.325 $W=0.15
RgG91 MX103/M0#g SN#17 457.944641 $L=1.425 $W=0.15
RgG92 SN#17 SN#18 30.460598 $L=0.1645 $W=0.27
RgG93 SN#18 SN#19 21.659868 $L=0.1345 $W=0.3
RgG94 SN#19 MX87/M0#g 375.617554 $L=1.235 $W=0.15
RfG95 SN#20 SN#21 27.858824 $L=0.37 $W=0.17
ReG96 SN SN#24 0.249922 $L=0.7995 $W=0.4
ReG97 SN#24 SN#25 0.624894 $L=1.185 $W=0.23
ReG98 SN#25 SN#26 4.161314 $L=6.805 $W=0.2
ReG99 SN#26 SN#27 0.062676 $L=0.1445 $W=0.385
ReG100 SN SN#28 0.092188 $L=0.295 $W=0.4
RjG101 SN#22 SN#27 152.000000 $A=0.0289
RjG102 SN#21 SN#28 152.000000 $A=0.0289
RiG103 SN#15 SN#20 15.000000 $A=0.0289
RiG104 SN#18 SN#22 15.000000 $A=0.0289
*
*|NET 3 2.47257e-15
*|I (MX135/M0#g MX135/M0 g X 0 9.5250 0.8000)
*|I (MX107/M0#g MX107/M0 g X 0 4.9550 0.8000)
*|I (MX97/M0#g MX97/M0 g X 0 3.5750 0.8000)
*|I (MX92/M0#d MX92/M0 d X 0 2.7005 0.8000)
*|I (MX137/M0#g MX137/M0 g X 0 8.0550 3.2800)
*|I (MX105/M0#g MX105/M0 g X 0 9.0950 3.2800)
*|I (MX88/M0#d MX88/M0 d X 0 2.7005 3.2800)
*|I (MX86/M0#g MX86/M0 g X 0 3.5750 3.2800)
*|S (3 3.5750 3.2800)
*|S (3#22 3.5150 1.7945)
*|S (3#23 3.5150 1.6300)
*|S (3#24 3.5150 1.4650)
*|S (3#25 4.9550 1.4650)
*|S (3#26 4.9550 1.6300)
*|S (3#27 9.0350 2.8600)
*|S (3#28 9.0350 1.6300)
*|S (3#29 9.5250 1.3150)
*|S (3#30 9.5250 1.4800)
*|S (3#32 2.8400 3.2800)
*|S (3#33 2.8400 3.1750)
*|S (3#34 2.8400 0.8500)
*|S (3#36 2.8400 0.8000)
*|S (3#37 9.5250 1.4800)
*|S (3#38 9.4400 1.6300)
*|S (3#39 9.0350 1.6300)
*|S (3#40 4.9550 1.6300)
*|S (3#41 3.5150 1.6300)
*|S (3#42 2.8400 1.6300)
*|S (3#43 2.8400 3.1750)
*|S (3#44 2.8400 1.6300)
*|S (3#45 2.8400 0.8500)
CL1 MX105/M0#g VSS 1.28223e-17
CL2 MX137/M0#g VSS 1.91204e-17
CL3 MX92/M0#d VSS 2.39965e-18
CL4 MX97/M0#g VSS 2.23998e-17
CL5 MX107/M0#g VSS 2.64114e-17
CL6 MX135/M0#g VSS 2.46978e-17
CL7 3#45 VSS 9.39417e-19
CL8 3#44 VSS 1.35062e-17
CL9 3#43 VSS 4.94968e-18
CL10 3#41 VSS 1.90555e-17
CL11 3#40 VSS 4.95568e-17
CL12 3#39 VSS 5.29595e-17
CL13 3#38 VSS 2.565e-17
CL14 3#42 VSS 2.32842e-17
CL15 3 VSS 4.03442e-18
CL16 MX135/M0#g 70#3 7.16439e-18
CL17 3#38 70#8 2.84481e-18
CL18 3#40 69#7 1.56261e-18
CL19 3#40 69#3 4.16364e-18
CL20 3#40 69#8 4.55517e-18
CL21 3#38 9#55 1.70909e-17
CL22 MX105/M0#g 8#23 7.09548e-18
CL23 MX135/M0#g MX135/M0#d 6.49954e-18
CL24 3#38 8#31 6.47726e-18
CL25 3#38 MX135/M0#d 3.91703e-18
CL26 3#38 8#28 3.17813e-17
CL27 3#38 8#30 1.74837e-17
CL28 3#39 8#28 1.76928e-17
CL29 3#39 8#30 1.09304e-17
CL30 3#39 7#22 9.26179e-18
CL31 MX105/M0#g 7#16 8.09391e-18
CL32 3#38 7#20 4.8178e-18
CL33 MX137/M0#g 7#16 1.6913e-18
CL34 3#40 7#22 5.41784e-17
CL35 3#40 7#27 3.20623e-17
CL36 3#39 7#29 2.40618e-17
CL37 3#39 7#21 9.59865e-17
CL38 3#39 7#20 6.07693e-17
CL39 MX137/M0#g 6#19 8.09719e-18
CL40 MX107/M0#g MX107/M0#s 7.46971e-18
CL41 3#40 MX107/M0#s 6.42402e-18
CL42 3#40 MX121/M0#g 5.38017e-18
CL43 3#40 6#25 7.76002e-17
CL44 3#40 6#24 8.58846e-17
CL45 3#40 6#28 2.06033e-17
CL46 3#39 6#24 4.52571e-17
CL47 3#39 6#31 2.9071e-17
CL48 3#39 6#23 8.49626e-17
CL49 3#40 5#30 1.20485e-17
CL50 MX105/M0#g 5#25 1.01294e-17
CL51 MX137/M0#g 5#26 1.03674e-17
CL52 3#41 5#30 1.16006e-17
CL53 3 4#24 7.80643e-18
CL54 3#41 4#33 7.44977e-18
CL55 MX97/M0#g MX97/M0#d 7.15086e-18
CL56 3#39 4#29 7.1316e-18
CL57 3#44 4#31 6.47524e-18
CL58 3 4#31 5.45622e-18
CL59 3#39 MX95/M0#g 5.39372e-18
CL60 3#39 4#28 5.05903e-18
CL61 3#41 4#31 4.87836e-18
CL62 3#33 4#35 4.59083e-18
CL63 MX92/M0#d 4#33 4.5096e-18
CL64 3#42 4#31 3.85932e-18
CL65 3#45 MX97/M0#d 3.17929e-18
CL66 3#43 4#24 2.96582e-18
CL67 MX105/M0#g 4#28 1.89906e-18
CL68 MX92/M0#d MX97/M0#d 1.30664e-17
CL69 3#45 4#33 5.15092e-17
CL70 3#43 4#34 3.11408e-17
CL71 3#40 4#30 1.46817e-17
CL72 3#33 4#24 1.90647e-17
CL73 3#44 4#33 3.1911e-17
CL74 3#41 4#34 1.44836e-17
CL75 3#44 4#34 7.23974e-17
CL76 3#43 4#35 5.859e-17
CL77 MX97/M0#g MX97/M0#s 7.57466e-18
CL78 3#39 VSS#46 6.59809e-18
CL79 MX92/M0#d VSS#36 6.01954e-18
CL80 MX107/M0#g VSS#15 5.4516e-18
CL81 3#40 VSS#47 5.4234e-18
CL82 MX92/M0#d VSS#47 5.3592e-18
CL83 MX135/M0#g VSS#5 4.95856e-18
CL84 3#45 VSS#36 4.59703e-18
CL85 3#45 MX92/M0#s 4.11893e-18
CL86 3#38 VSS#46 4.04304e-18
CL87 MX107/M0#g VSS#47 4.01713e-18
CL88 MX135/M0#g VSS#46 3.995e-18
CL89 MX97/M0#g VSS#5 3.62964e-18
CL90 MX92/M0#d MX92/M0#s 1.91695e-17
CL91 3#45 VSS#47 1.74471e-17
RgL261 3 3#22 477.224640 $L=1.485 $W=0.15
RgL262 3#22 3#23 38.857975 $L=0.1645 $W=0.27
RgL263 3#23 3#24 29.410927 $L=0.1645 $W=0.27
RgL264 3#24 MX97/M0#g 213.731293 $L=0.665 $W=0.15
RgL265 MX107/M0#g 3#25 213.731293 $L=0.665 $W=0.15
RgL266 3#25 3#26 34.134449 $L=0.1645 $W=0.27
RgL267 MX105/M0#g 3#27 135.053802 $L=0.42 $W=0.15
RgL268 3#27 MX137/M0#g 396.430481 $L=1.38 $W=0.15
RgL269 3#27 3#28 220.935638 $L=1.23 $W=0.27
RgL270 MX135/M0#g 3#29 165.531296 $L=0.515 $W=0.15
RgL271 3#29 3#30 34.134449 $L=0.1645 $W=0.27
RfL272 3#32 3#33 7.905882 $L=0.105 $W=0.17
RfL273 3#34 3#36 3.764706 $L=0.05 $W=0.17
RfL274 3#37 3#38 4.550025 $L=0.0845 $W=0.4
RfL275 3#38 3#39 30.502117 $L=0.405 $W=0.17
RfL276 3#39 3#40 307.200012 $L=4.08 $W=0.17
RfL277 3#40 3#41 108.423531 $L=1.44 $W=0.17
RfL278 3#41 3#42 50.823528 $L=0.675 $W=0.17
ReL279 3#43 3#44 0.839674 $L=1.545 $W=0.23
ReL280 3#44 3#45 0.423913 $L=0.78 $W=0.23
RhL281 MX92/M0#d 3#36 15.000000 $A=0.0289
Rh_2_L282 MX88/M0#d 3#32 15.000000 $A=0.0289
RjL283 3#33 3#43 152.000000 $A=0.0289
RjL284 3#42 3#44 152.000000 $A=0.0289
RjL285 3#34 3#45 152.000000 $A=0.0289
RiL286 3#30 3#37 15.000000 $A=0.0289
RiL287 3#28 3#39 15.000000 $A=0.0289
RiL288 3#26 3#40 15.000000 $A=0.0289
RiL289 3#23 3#41 15.000000 $A=0.0289
RmwL290 MX86/M0#g 3 0.001000 $W=1000000
*
*|NET 7 1.93447e-15
*|I (MX134/M0#d MX134/M0 d X 0 6.6895 0.8000)
*|I (MX121/M0#d MX121/M0 d X 0 6.4105 0.8000)
*|I (MX110/M0#g MX110/M0 g X 0 7.7150 0.8000)
*|I (MX95/M0#s MX95/M0 s X 0 9.0195 0.8000)
*|I (MX118/M0#d MX118/M0 d X 0 6.6895 3.2800)
*|I (MX105/M0#s MX105/M0 s X 0 9.0195 3.2800)
*|I (MX104/M0#d MX104/M0 d X 0 6.4105 3.2800)
*|I (MX99/M0#g MX99/M0 g X 0 7.6250 3.2800)
*|S (7 7.6250 3.2800)
*|S (7#8 7.6550 1.2900)
*|S (7#9 7.6550 1.4545)
*|S (7#10 7.6250 2.0550)
*|S (7#12 6.5500 3.2800)
*|S (7#13 6.5500 3.1750)
*|S (7#15 8.8800 3.2800)
*|S (7#16 8.8800 3.1750)
*|S (7#17 8.8800 0.8500)
*|S (7#19 8.8800 0.8000)
*|S (7#20 8.8800 1.2900)
*|S (7#21 7.6550 1.2900)
*|S (7#22 6.5500 1.2900)
*|S (7#23 6.5100 1.2050)
*|S (7#25 6.5500 0.8000)
*|S (7#26 6.5500 3.1750)
*|S (7#27 6.5500 1.2900)
*|S (7#28 8.8800 3.1750)
*|S (7#29 8.8800 1.2900)
*|S (7#30 8.8800 0.8500)
CP1 MX95/M0#s VSS 6.36248e-18
CP2 MX110/M0#g VSS 2.07887e-17
CP3 MX134/M0#d VSS 1.28109e-17
CP4 7#30 VSS 6.15373e-18
CP5 7#29 VSS 8.1089e-18
CP6 7#28 VSS 5.66887e-18
CP7 7#27 VSS 2.16336e-17
CP8 7#26 VSS 9.0827e-18
CP9 7#21 VSS 2.75558e-17
CP10 7#22 VSS 2.48077e-17
CP11 7#13 VSS 2.80522e-18
CP12 7#20 VSS 2.43146e-17
CP13 7#16 VSS 1.40874e-18
CP14 7 VSS 1.46634e-17
CP15 MX110/M0#g 69#6 1.8926e-18
CP16 7#21 69#7 1.74526e-18
CP17 7#22 69#8 1.62133e-18
CP18 MX134/M0#d 69#8 7.26693e-18
CP19 MX134/M0#d 69#6 2.11996e-17
CP20 7#27 69#7 1.12214e-17
CP21 7#27 69#8 1.12794e-17
CP22 MX134/M0#d 69#7 7.21591e-18
CP23 7#22 69#6 1.57089e-17
CP24 7#22 69#7 5.79721e-18
CP25 MX134/M0#d 69#3 2.16452e-17
CP26 7 55 1.56196e-18
CP27 7#26 55 5.78767e-18
CP28 MX110/M0#g 59 6.57799e-18
CP29 7#13 55 2.447e-17
CP30 7#21 59 2.48809e-17
CP31 7#20 8#31 7.97067e-18
CP32 7#16 8#29 3.63419e-18
CP33 MX95/M0#s 8#31 3.52588e-18
CP34 7#28 8#29 7.51226e-17
CP35 7#16 8#23 2.32595e-17
CP36 7#29 8#30 8.08402e-17
CP37 7#28 8#30 3.33666e-17
CP38 7#30 8#31 3.70131e-17
CP39 7#29 8#31 3.35514e-17
CP40 7#29 8#28 8.08321e-18
CP41 MX95/M0#s MX135/M0#d 1.79347e-17
CP42 7#21 VSS#46 9.0318e-18
CP43 MX110/M0#g MX110/M0#s 8.30381e-18
CP44 MX95/M0#s VSS#14 7.24683e-18
CP45 7#20 VSS#46 5.64845e-18
CP46 MX95/M0#s VSS#46 5.3592e-18
CP47 MX134/M0#d VSS#47 4.87673e-18
CP48 MX110/M0#g VSS#46 4.8201e-18
CP49 7#30 VSS#14 4.60773e-18
CP50 7#21 VSS#14 3.72268e-18
CP51 MX110/M0#g VSS#14 3.64084e-18
CP52 MX134/M0#d VSS#15 3.54301e-18
CP53 7#21 MX110/M0#s 2.82162e-17
CP54 7#30 VSS#46 2.07771e-17
RgP365 MX110/M0#g 7#8 143.335938 $L=0.49 $W=0.15
RgP366 7#8 7#9 38.857975 $L=0.1645 $W=0.27
RgP367 7#9 7#10 208.487564 $L=0.72 $W=0.15
RgP368 7#10 7 401.205170 $L=1.2245 $W=0.15
RfP369 7#12 7#13 7.905882 $L=0.105 $W=0.17
RfP370 7#15 7#16 7.905882 $L=0.105 $W=0.17
RfP371 7#17 7#19 3.764706 $L=0.05 $W=0.17
RfP372 7#20 7#21 92.235298 $L=1.225 $W=0.17
RfP373 7#21 7#22 83.199997 $L=1.105 $W=0.17
RfP374 7#22 7#23 4.339200 $L=0.0845 $W=0.25
RfP375 7#23 7#25 30.506918 $L=0.405 $W=0.17
ReP376 7#26 7#27 1.024457 $L=1.885 $W=0.23
ReP377 7#28 7#29 1.024457 $L=1.885 $W=0.23
ReP378 7#29 7#30 0.239130 $L=0.44 $W=0.23
RhP379 MX95/M0#s 7#19 15.000000 $A=0.0289
RhP380 MX134/M0#d 7#25 15.000000 $A=0.0289
Rh_2_P381 MX118/M0#d 7#12 15.000000 $A=0.0289
Rh_2_P382 MX105/M0#s 7#15 15.000000 $A=0.0289
RjP383 7#13 7#26 152.000000 $A=0.0289
RjP384 7#22 7#27 152.000000 $A=0.0289
RjP385 7#16 7#28 152.000000 $A=0.0289
RjP386 7#20 7#29 152.000000 $A=0.0289
RjP387 7#17 7#30 152.000000 $A=0.0289
RiP388 7#8 7#21 15.000000 $A=0.0289
RmwP389 MX121/M0#d MX134/M0#d 0.001000 $W=1000000
RmwP390 MX104/M0#d MX118/M0#d 0.001000 $W=1000000
RmwP391 MX99/M0#g 7 0.001000 $W=1000000
*
*|NET 43 1.57203e-15
*|I (MX123/M0#g MX123/M0 g X 0 15.3550 0.8000)
*|I (MX123/M1#g MX123/M1 g X 0 15.7850 0.8000)
*|I (MX123/M2#g MX123/M2 g X 0 16.2150 0.8000)
*|I (MX123/M3#g MX123/M3 g X 0 16.6450 0.8000)
*|I (MX94/M0#d MX94/M0 d X 0 13.1295 0.8000)
*|I (MX140/M0#g MX140/M0 g X 0 16.6450 3.2400)
*|I (MX140/M1#g MX140/M1 g X 0 16.2150 3.2400)
*|I (MX140/M2#g MX140/M2 g X 0 15.7850 3.2400)
*|I (MX140/M3#g MX140/M3 g X 0 15.3550 3.2400)
*|I (MX90/M0#d MX90/M0 d X 0 13.1295 3.2400)
*|S (43 15.3550 3.2400)
*|S (43#29 16.6450 1.9700)
*|S (43#30 16.2150 1.9700)
*|S (43#31 16.0000 1.9700)
*|S (43#32 15.7850 1.9700)
*|S (43#33 15.3550 1.9700)
*|S (43#35 12.9900 3.2400)
*|S (43#36 12.9900 2.9450)
*|S (43#37 12.9900 1.0050)
*|S (43#39 12.9900 0.8000)
*|S (43#40 16.0000 1.9700)
*|S (43#41 12.9900 1.9700)
*|S (43#42 12.9900 2.9450)
*|S (43#43 12.9900 1.9700)
*|S (43#44 12.9900 1.0050)
CS1 MX140/M2#g VSS 3.63126e-19
CS2 MX140/M1#g VSS 7.56819e-19
CS3 MX94/M0#d VSS 1.72022e-17
CS4 MX123/M3#g VSS 1.41839e-17
CS5 MX123/M2#g VSS 1.09696e-17
CS6 MX123/M1#g VSS 1.41342e-17
CS7 MX123/M0#g VSS 1.60855e-17
CS8 43#44 VSS 1.51974e-17
CS9 43#43 VSS 1.91333e-18
CS10 43#42 VSS 3.77692e-18
CS11 43#40 VSS 6.05018e-17
CS12 43#41 VSS 3.96051e-17
CS13 43#36 VSS 4.83703e-18
CS14 43 VSS 7.05457e-18
CS15 43#40 VSS#45 7.58056e-18
CS16 43#44 MX142/M0#s 7.41396e-18
CS17 MX123/M2#g MX123/M1#d 7.15597e-18
CS18 MX123/M1#g MX123/M1#d 7.15597e-18
CS19 MX123/M0#g MX125/M3#d 7.15597e-18
CS20 43#44 MX125/M0#s 7.14627e-18
CS21 MX94/M0#d VSS#46 5.56735e-18
CS22 MX123/M0#g VSS#45 4.8201e-18
CS23 MX123/M2#g VSS#3 4.29097e-18
CS24 MX123/M3#g VSS#2 4.29097e-18
CS25 MX123/M1#g VSS#5 3.927e-18
CS26 MX94/M0#d VSS#9 3.46337e-18
CS27 43#44 VSS#9 3.30335e-18
CS28 MX123/M2#g VSS#45 3.117e-18
CS29 MX123/M1#g VSS#45 3.117e-18
CS30 MX123/M3#g VSS#45 3.01584e-18
CS31 MX123/M0#g VSS#5 2.56692e-18
CS32 43#40 MX123/M1#d 2.45856e-18
CS33 MX123/M3#g MX123/M1#d 2.32459e-18
CS34 43#44 VSS#10 2.22829e-18
CS35 MX123/M0#g VSS#7 1.70489e-18
CS36 MX123/M2#g MX123/M3#d 1.52849e-18
CS37 MX123/M0#g MX123/M1#d 1.48714e-18
CS38 MX94/M0#d MX142/M0#s 1.73728e-17
CS39 MX123/M3#g MX123/M3#d 9.44324e-18
CS40 MX94/M0#d MX125/M0#s 2.0759e-17
CS41 43#44 VSS#46 2.15763e-17
CS42 43#40 MX125/M3#d 8.1612e-18
RgS447 MX140/M0#g 43#29 404.116638 $L=1.27 $W=0.15
RgS448 43#29 43#30 62.011234 $L=0.43 $W=0.27
RgS449 43#30 43#31 36.929379 $L=0.215 $W=0.27
RgS450 43#31 43#32 36.929379 $L=0.215 $W=0.27
RgS451 43#32 43#33 62.011227 $L=0.43 $W=0.27
RgS452 43#33 MX123/M0#g 371.983307 $L=1.17 $W=0.15
RgS453 43#29 MX123/M3#g 371.983307 $L=1.17 $W=0.15
RgS454 43#30 MX123/M2#g 369.426422 $L=1.17 $W=0.15
RgS455 43#30 MX140/M1#g 401.559753 $L=1.27 $W=0.15
RgS456 43#32 MX123/M1#g 369.426422 $L=1.17 $W=0.15
RgS457 43#32 MX140/M2#g 401.559753 $L=1.27 $W=0.15
RgS458 43#33 43 404.116638 $L=1.27 $W=0.15
RfS459 43#35 43#36 22.211765 $L=0.295 $W=0.17
RfS460 43#37 43#39 15.435293 $L=0.205 $W=0.17
RfS461 43#40 43#41 226.635300 $L=3.01 $W=0.17
ReS462 43#42 43#43 0.529891 $L=0.975 $W=0.23
ReS463 43#43 43#44 0.524457 $L=0.965 $W=0.23
RhS464 MX94/M0#d 43#39 15.000000 $A=0.0289
Rh_2_S465 MX90/M0#d 43#35 15.000000 $A=0.0289
RjS466 43#36 43#42 50.666668 $A=0.0867
RjS467 43#41 43#43 152.000000 $A=0.0289
RjS468 43#37 43#44 76.000000 $A=0.0578
RiS469 43#31 43#40 5.000000 $A=0.0867
RmwS470 MX140/M3#g 43 0.001000 $W=1000000
*
*|NET 1 1.11797e-15
*|I (MX111/M0#g MX111/M0 g X 0 1.3350 0.8000)
*|I (MX96/M0#d MX96/M0 d X 0 0.3995 0.8000)
*|I (MX101/M0#g MX101/M0 g X 0 1.7650 3.2800)
*|I (MX85/M0#d MX85/M0 d X 0 0.3995 3.2800)
*|S (1 1.7650 3.2800)
*|S (1#8 1.3350 1.4450)
*|S (1#9 1.3350 1.6100)
*|S (1#10 1.7650 2.8995)
*|S (1#11 1.7650 2.7350)
*|S (1#13 0.2600 3.2800)
*|S (1#14 0.2600 3.1750)
*|S (1#15 0.2600 0.8500)
*|S (1#17 0.2600 0.8000)
*|S (1#18 1.3350 1.6100)
*|S (1#19 0.2600 1.6100)
*|S (1#20 1.7650 2.6500)
*|S (1#21 1.7650 2.7350)
*|S (1#22 0.2600 3.1750)
*|S (1#23 0.2600 1.6100)
*|S (1#24 0.2600 0.8500)
CJ1 MX96/M0#d VSS 1.13174e-17
CJ2 MX111/M0#g VSS 1.93131e-17
CJ3 1#24 VSS 2.60262e-17
CJ4 1#23 VSS 3.52829e-17
CJ5 1#22 VSS 3.10944e-18
CJ6 1#21 VSS 7.32467e-18
CJ7 1#18 VSS 4.10781e-17
CJ8 1#19 VSS 3.09379e-17
CJ9 1#14 VSS 1.37285e-18
CJ10 1 VSS 3.66525e-18
CJ11 MX111/M0#g 47 6.21439e-18
CJ12 1#24 47 1.54528e-18
CJ13 1#18 47 7.90444e-18
CJ14 1#21 53 1.412e-17
CJ15 1 53 7.72091e-18
CJ16 MX111/M0#g 2#14 5.38136e-18
CJ17 1#24 2#17 4.9442e-18
CJ18 1#21 2#16 3.13674e-18
CJ19 1#23 2#15 2.42891e-18
CJ20 1#21 2#14 1.55516e-18
CJ21 MX111/M0#g 2#17 1.41703e-18
CJ22 1#21 2#3 1.21118e-17
CJ23 1#18 2#14 5.02673e-17
CJ24 1#21 2#15 3.79782e-17
CJ25 1#18 2#16 3.8435e-17
CJ26 1 2#3 6.79664e-18
CJ27 MX111/M0#g MX111/M0#d 6.2356e-18
CJ28 MX96/M0#d VSS#47 5.45834e-18
CJ29 MX111/M0#g VSS#37 5.03101e-18
CJ30 MX111/M0#g VSS#47 4.8201e-18
CJ31 1#19 VSS#47 4.69868e-18
CJ32 MX96/M0#d VSS#38 4.62862e-18
CJ33 1#24 VSS#38 2.88725e-18
CJ34 1#24 VSS#37 1.88011e-18
CJ35 MX111/M0#g MX96/M0#s 1.44944e-18
CJ36 1#19 MX96/M0#s 9.50511e-18
CJ37 1#24 MX96/M0#s 7.46686e-18
CJ38 1#18 VSS#47 5.6303e-18
CJ39 1#24 VSS#47 2.07771e-17
CJ40 MX96/M0#d MX96/M0#s 2.02978e-17
RgJ220 MX111/M0#g 1#8 207.304626 $L=0.645 $W=0.15
RgJ221 1#8 1#9 34.134449 $L=0.1645 $W=0.27
RgJ222 1 1#10 122.151299 $L=0.38 $W=0.15
RgJ223 1#10 1#11 34.134449 $L=0.1645 $W=0.27
RfJ224 1#13 1#14 7.905882 $L=0.105 $W=0.17
RfJ225 1#15 1#17 3.764706 $L=0.05 $W=0.17
RfJ226 1#18 1#19 80.941177 $L=1.075 $W=0.17