*
*|DSPF 1.5
*
*|DATE "Fri Feb 28 12:13:40 2025"
*|VENDOR "Cadence Design Systems"
*|PROGRAM "Cadence Quantus Extraction"
*|VERSION "22.1.0-p089 Linux 64 bit - (Thu Jan 19 11:47:08 PST 2023)"
*|DESIGN "SDFFSX4_LP"
*|DIVIDER /
*|DELIMITER #
*|DeviceFingerDelim "@"
*|BUSBIT []
*|GLOBAL_TEMPERATURE 25
*|OPERATING_TEMPERATURE 25
** QRC_TECH_DIR /vols/wfo_devel/projects/reference_SKY130/tech/sky130_release_0.0.4/quantus/extraction/typical 
** HIERARCHICAL_SPLIT_PINS_DELIMITER '%'
** caps2d version: 10
*
.SUBCKT  SDFFSX4_LP CK D Q QN SE SI SN VDD VSS
*
*Net Section
*
*|GROUND_NET VSS
*
*|NET SN 1.16458e-15
*|P (SN X 0 5.5350 1.9250)
*|I (MX93/M0#g MX93/M0 g X 0 7.9650 0.8000)
*|I (MX92/M0#g MX92/M0 g X 0 5.8150 0.8000)
*|I (MX75/M0#g MX75/M0 g X 0 7.9650 3.2800)
*|I (MX74/M0#g MX74/M0 g X 0 5.8150 3.2800)
*|S (SN#15 5.8150 1.6300)
*|S (SN#16 5.8150 1.4650)
*|S (SN#17 8.0250 1.7945)
*|S (SN#18 8.0250 1.6300)
*|S (SN#19 8.0250 1.4650)
*|S (SN#20 8.0250 1.6300)
*|S (SN#21 5.8150 1.6300)
*|S (SN#22 5.5200 1.6300)
*|S (SN#23 5.5200 1.6300)
CG1 MX74/M0#g VSS 6.79786e-18
CG2 MX75/M0#g VSS 6.22024e-18
CG3 MX92/M0#g VSS 2.68596e-17
CG4 MX93/M0#g VSS 2.36319e-17
CG5 SN#23 VSS 1.56627e-18
CG6 SN#21 VSS 2.13003e-17
CG7 SN#20 VSS 4.40931e-17
CG8 SN#22 VSS 8.95041e-18
CG9 SN VSS 1.99261e-18
CG10 SN#20 62#7 2.17145e-18
CG11 SN#20 62#8 1.92533e-18
CG12 MX93/M0#g 56 6.57799e-18
CG13 MX75/M0#g 62#6 3.59e-18
CG14 MX75/M0#g 62#7 2.25179e-18
CG15 MX75/M0#g MX75/M0#d 5.29883e-18
CG16 SN#20 56 7.89981e-18
CG17 SN#20 MX110/M0#g 5.39372e-18
CG18 SN#20 8#55 3.71306e-18
CG19 SN#20 8#61 6.81442e-18
CG20 SN#20 8#56 7.90696e-17
CG21 SN#20 7#28 5.3759e-18
CG22 SN#20 7#30 5.108e-18
CG23 SN#21 7#31 3.47268e-18
CG24 MX75/M0#g 7#27 2.59324e-18
CG25 SN#21 7#30 6.52077e-18
CG26 SN 6#12 5.47702e-18
CG27 MX74/M0#g MX74/M0#d 5.29259e-18
CG28 MX74/M0#g 6#19 3.96553e-18
CG29 MX74/M0#g 6#12 3.59e-18
CG30 MX74/M0#g 6#23 2.43274e-18
CG31 SN#21 6#25 5.90645e-18
CG32 SN 6#19 1.70359e-17
CG33 SN#21 6#21 1.14934e-17
CG34 SN 6#20 8.28053e-18
CG35 SN 6#23 2.01859e-17
CG36 SN#20 5#31 5.71484e-18
CG37 MX92/M0#g 5#32 4.21785e-18
CG38 MX92/M0#g 5#31 2.67285e-18
CG39 MX92/M0#g MX83/M0#d 1.88846e-18
CG40 SN#22 5#32 2.91349e-17
CG41 SN#20 5#30 4.3332e-17
CG42 SN 5#26 6.85625e-18
CG43 SN 5#38 1.21491e-17
CG44 SN 5#37 8.26976e-17
CG45 SN#21 5#32 1.78031e-17
CG46 SN#21 5#31 7.95033e-17
CG47 SN#20 5#40 2.86575e-17
CG48 SN#23 5#38 3.86657e-17
CG49 SN#23 5#32 9.72913e-18
CG50 SN#22 5#38 8.70895e-18
CG51 SN 4#17 5.12459e-18
CG52 SN#22 4#19 4.80544e-18
CG53 SN#21 4#18 1.88638e-17
CG54 SN#23 4#19 1.43473e-17
CG55 SN#23 4#18 2.97959e-17
CG56 SN 4#18 7.10423e-17
CG57 SN 3#38 1.94361e-17
CG58 SN#20 3#37 1.53591e-17
CG59 SN#21 3#37 7.68944e-17
CG60 SN#22 3#38 2.87244e-17
CG61 SN#21 3#38 2.07847e-17
CG62 MX93/M0#g VSS#18 4.29097e-18
CG63 MX92/M0#g VSS#19 3.62458e-18
CG64 MX92/M0#g VSS#43 2.91292e-18
CG65 SN#23 MX92/M0#s 2.70662e-18
CG66 MX92/M0#g MX92/M0#s 8.25595e-18
CG67 MX93/M0#g MX93/M0#s 8.30381e-18
CG68 SN#20 MX93/M0#s 6.52666e-18
CG69 MX74/M0#g VDD#27 5.77573e-18
CG70 SN VDD 5.50302e-18
CG71 SN VDD#43 4.83234e-18
CG72 MX75/M0#g VDD#24 4.29329e-18
CG73 MX74/M0#g VDD#43 3.213e-18
CG74 MX74/M0#g MX86/M0#s 9.09431e-18
CG75 MX74/M0#g VDD 1.7787e-17
CG76 MX75/M0#g MX87/M0#s 9.1005e-18
CG77 MX75/M0#g VDD 1.86031e-17
RgG82 MX74/M0#g SN#15 511.359100 $L=1.65 $W=0.15
RgG83 SN#15 SN#16 34.134449 $L=0.1645 $W=0.27
RgG84 SN#16 MX92/M0#g 213.731293 $L=0.665 $W=0.15
RgG85 MX75/M0#g SN#17 477.224640 $L=1.485 $W=0.15
RgG86 SN#17 SN#18 38.857975 $L=0.1645 $W=0.27
RgG87 SN#18 SN#19 29.410927 $L=0.1645 $W=0.27
RgG88 SN#19 MX93/M0#g 213.731293 $L=0.665 $W=0.15
RfG89 SN#20 SN#21 166.399994 $L=2.21 $W=0.17
RfG90 SN#21 SN#22 22.211765 $L=0.295 $W=0.17
ReG91 SN SN#23 0.141827 $L=0.295 $W=0.26
RjG92 SN#22 SN#23 152.000000 $A=0.0289
RiG93 SN#18 SN#20 15.000000 $A=0.0289
RiG94 SN#15 SN#21 15.000000 $A=0.0289
*
*|NET Q 1.26812e-15
*|P (Q X 0 11.9750 2.0600)
*|I (MX115/M0#d MX115/M0 d X 0 10.8005 0.8000)
*|I (MX115/M1#s MX115/M1 s X 0 11.0795 0.8000)
*|I (MX115/M2#d MX115/M2 d X 0 11.6605 0.8000)
*|I (MX115/M3#s MX115/M3 s X 0 11.9395 0.8000)
*|I (MX114/M0#d MX114/M0 d X 0 10.8005 3.2400)
*|I (MX114/M1#s MX114/M1 s X 0 11.0795 3.2400)
*|I (MX114/M2#d MX114/M2 d X 0 11.6605 3.2400)
*|I (MX114/M3#s MX114/M3 s X 0 11.9395 3.2400)
*|S (Q#2 10.9400 3.2400)
*|S (Q#3 10.9400 2.9450)
*|S (Q#4 10.9400 1.0050)
*|S (Q#6 10.9400 0.8000)
*|S (Q#8 11.8000 3.2400)
*|S (Q#9 11.8000 2.9450)
*|S (Q#10 11.8000 1.0050)
*|S (Q#12 11.8000 0.8000)
*|S (Q#13 11.8875 1.8850)
*|S (Q#14 10.9400 1.8850)
*|S (Q#15 10.9400 1.0050)
*|S (Q#16 11.8000 2.9450)
*|S (Q#17 11.8000 1.0050)
*|S (Q#18 10.9400 2.9450)
CC1 MX115/M2#d VSS 2.21464e-17
CC2 MX115/M0#d VSS 1.92012e-17
CC3 Q#18 VSS 5.34066e-18
CC4 Q#17 VSS 4.37877e-17
CC5 Q#16 VSS 3.7961e-19
CC6 Q#15 VSS 3.57753e-17
CC7 Q#14 VSS 6.57889e-18
CC8 Q#3 VSS 9.7771e-19
CC9 Q#9 VSS 4.24227e-18
CC10 Q VSS 8.41557e-18
CC11 Q#3 36#42 6.03699e-18
CC12 Q#18 36#36 6.03699e-18
CC13 MX115/M0#d MX81/M0#d 5.33871e-18
CC14 MX115/M0#d 36#44 4.21121e-18
CC15 Q#15 MX81/M0#d 4.21121e-18
CC16 Q#15 36#44 3.47334e-17
CC17 Q 36#40 5.19599e-17
CC18 Q#14 36#43 2.34512e-17
CC19 Q#9 36#40 1.13871e-17
CC20 Q#18 36#42 4.69981e-17
CC21 Q#3 36#36 8.04791e-18
CC22 Q#3 36#41 1.13871e-17
CC23 Q#14 36#41 3.92783e-17
CC24 MX115/M2#d MX115/M3#g 6.23699e-18
CC25 MX115/M2#d MX115/M2#g 6.23699e-18
CC26 MX115/M0#d MX115/M1#g 6.23699e-18
CC27 MX115/M0#d MX115/M0#g 6.23699e-18
CC28 Q#14 MX114/M1#g 3.6165e-18
CC29 Q MX114/M2#g 3.6165e-18
CC30 Q#14 MX115/M1#g 2.78921e-18
CC31 Q MX115/M2#g 2.78921e-18
CC32 Q#16 MX114/M3#g 2.58997e-18
CC33 Q#16 MX114/M2#g 2.22259e-18
CC34 Q#18 MX114/M1#g 2.14874e-18
CC35 Q#18 MX114/M0#g 2.14874e-18
CC36 Q#3 MX77/M0#g 1.98158e-18
CC37 Q#3 MX114/M2#g 1.84979e-18
CC38 Q#9 MX114/M1#g 1.84979e-18
CC39 Q#17 MX115/M3#g 1.822e-18
CC40 Q#17 MX115/M2#g 1.58756e-18
CC41 Q#15 MX115/M1#g 1.53482e-18
CC42 Q#15 MX115/M0#g 1.53482e-18
CC43 Q#9 MX114/M3#g 8.75846e-18
CC44 Q#9 MX114/M2#g 8.75846e-18
CC45 Q#3 MX114/M1#g 8.75846e-18
CC46 Q#3 MX114/M0#g 8.75846e-18
CC47 MX115/M0#d 8#53 2.11231e-17
CC48 Q 8#53 3.54296e-17
CC49 Q#14 8#53 4.05029e-17
CC50 MX115/M2#d 8#53 2.11231e-17
CC51 Q#17 VSS#5 4.35169e-18
CC52 MX115/M0#d VSS#8 3.85345e-18
CC53 Q#15 VSS#8 3.50266e-18
CC54 Q#17 VSS#6 2.77186e-18
CC55 MX115/M2#d VSS#6 2.42318e-18
CC56 MX115/M2#d VSS#5 2.39954e-18
CC57 Q#14 MX115/M1#d 2.07705e-18
CC58 Q MX115/M1#d 2.06365e-18
CC59 MX115/M2#d MX115/M3#d 2.27458e-17
CC60 MX115/M0#d MX115/M0#s 2.0759e-17
CC61 Q#17 MX115/M3#d 1.12203e-17
CC62 MX115/M2#d MX115/M1#d 2.0759e-17
CC63 MX115/M0#d MX115/M1#d 2.0759e-17
CC64 Q#17 MX115/M1#d 7.25734e-18
CC65 Q#15 MX115/M0#s 7.14627e-18
CC66 Q#15 MX115/M1#d 7.14627e-18
CC67 Q VDD 5.4104e-18
CC68 Q#16 VDD#5 4.30427e-18
CC69 Q#14 MX114/M1#d 4.22688e-18
CC70 Q MX114/M1#d 4.20933e-18
CC71 Q#3 VDD#8 3.88699e-18
CC72 Q#14 VDD 3.56e-18
CC73 Q#18 VDD#8 3.45896e-18
CC74 Q#16 VDD#6 2.73997e-18
CC75 Q#9 VDD#6 2.44428e-18
CC76 Q#16 MX114/M1#d 1.01369e-17
CC77 Q#3 VDD 2.09959e-17
CC78 Q#9 VDD 2.09223e-17
CC79 Q#3 MX114/M0#s 3.223e-17
CC80 Q#9 MX114/M1#d 3.223e-17
CC81 Q#18 VDD 3.51871e-17
CC82 Q#16 VDD 4.45025e-17
CC83 Q#9 MX121/M3#d 3.18501e-17
CC84 Q#18 MX114/M0#s 9.98129e-18
CC85 Q#18 MX114/M1#d 9.98129e-18
CC86 Q#16 MX121/M3#d 1.56877e-17
CC87 Q#3 MX114/M1#d 3.223e-17
CC88 Q#9 QN#18 5.52404e-18
CC89 MX115/M2#d MX113/M0#d 5.14057e-18
CC90 Q#17 MX113/M0#d 6.50087e-18
CC91 Q#17 QN#15 4.66878e-17
CC92 Q#16 QN#18 6.39749e-17
CC93 Q#16 QN#3 9.33278e-18
CC94 Q QN#14 3.96317e-17
CC95 Q#9 QN#3 7.74922e-18
RfC15 Q#2 Q#3 22.211765 $L=0.295 $W=0.17
RfC16 Q#4 Q#6 15.435293 $L=0.205 $W=0.17
RfC17 Q#8 Q#9 22.211765 $L=0.295 $W=0.17
RfC18 Q#10 Q#12 15.435293 $L=0.205 $W=0.17
ReC19 Q Q#13 0.051993 $L=0.175 $W=0.405
ReC20 Q#13 Q#14 0.388426 $L=0.9475 $W=0.23
ReC21 Q#14 Q#15 0.473476 $L=0.88 $W=0.23
ReC22 Q Q#16 0.273148 $L=0.885 $W=0.405
ReC23 Q#13 Q#17 0.269585 $L=0.88 $W=0.405
ReC24 Q#14 Q#18 0.571302 $L=1.06 $W=0.23
RhC25 MX115/M0#d Q#6 15.000000 $A=0.0289
RhC26 MX115/M2#d Q#12 15.000000 $A=0.0289
Rh_2_C27 MX114/M0#d Q#2 15.000000 $A=0.0289
Rh_2_C28 MX114/M2#d Q#8 15.000000 $A=0.0289
RjC29 Q#4 Q#15 76.000000 $A=0.0578
RjC30 Q#9 Q#16 50.666668 $A=0.0867
RjC31 Q#10 Q#17 76.000000 $A=0.0578
RjC32 Q#3 Q#18 50.666668 $A=0.0867
RmwC33 MX115/M1#s MX115/M0#d 0.001000 $W=1000000
RmwC34 MX115/M3#s MX115/M2#d 0.001000 $W=1000000
RmwC35 MX114/M1#s MX114/M0#d 0.001000 $W=1000000
RmwC36 MX114/M3#s MX114/M2#d 0.001000 $W=1000000
*
*|NET 3 1.76742e-15
*|I (MX112/M0#g MX112/M0 g X 0 3.5750 0.8000)
*|I (MX91/M0#g MX91/M0 g X 0 7.1050 0.8000)
*|I (MX83/M0#g MX83/M0 g X 0 4.8650 0.8000)
*|I (MX82/M0#d MX82/M0 d X 0 2.7005 0.8000)
*|I (MX102/M0#g MX102/M0 g X 0 4.0050 3.2800)
*|I (MX73/M0#g MX73/M0 g X 0 4.8650 3.2800)
*|I (MX72/M0#d MX72/M0 d X 0 2.7005 3.2800)
*|I (MM1#g MM1 g X 0 6.6750 3.2800)
*|S (3 4.0050 3.2800)
*|S (3#22 4.0050 1.9700)
*|S (3#23 3.7900 1.9700)
*|S (3#24 3.5750 1.9700)
*|S (3#25 4.9250 2.1345)
*|S (3#26 4.9250 1.9700)
*|S (3#27 4.9250 1.8050)
*|S (3#28 7.1050 1.9700)
*|S (3#29 6.8900 1.9700)
*|S (3#30 6.6750 1.9700)
*|S (3#32 2.8400 3.2800)
*|S (3#33 2.8400 3.0900)
*|S (3#34 2.8400 0.8500)
*|S (3#36 2.8400 0.8000)
*|S (3#37 6.8900 1.9700)
*|S (3#38 4.9250 1.9700)
*|S (3#39 3.7900 1.9700)
*|S (3#40 2.8400 1.9700)
*|S (3#41 2.8400 3.0900)
*|S (3#42 2.8400 1.9700)
*|S (3#43 2.8400 0.8500)
CL1 MM1#g VSS 9.86056e-18
CL2 MX72/M0#d VSS 2.47084e-18
CL3 MX73/M0#g VSS 4.03428e-18
CL4 MX82/M0#d VSS 2.62546e-18
CL5 MX83/M0#g VSS 2.27073e-17
CL6 MX91/M0#g VSS 2.90786e-17
CL7 MX112/M0#g VSS 1.98866e-17
CL8 3#43 VSS 6.2499e-18
CL9 3#42 VSS 1.08816e-17
CL10 3#41 VSS 5.3536e-18
CL11 3#39 VSS 2.85878e-17
CL12 3#38 VSS 3.06918e-17
CL13 3#37 VSS 3.08117e-17
CL14 3#40 VSS 2.49255e-17
CL15 3#33 VSS 1.50835e-18
CL16 3 VSS 1.32669e-17
CL17 MX91/M0#g MX111/M0#d 6.2356e-18
CL18 MM1#g MX118/M0#d 4.57251e-18
CL19 3#37 7#28 3.32231e-17
CL20 3#37 7#30 1.82763e-17
CL21 MM1#g MX86/M0#d 4.57251e-18
CL22 MM1#g 6#15 3.15253e-18
CL23 3#38 MX79/M0#g 2.9096e-18
CL24 MX73/M0#g 6#20 1.50882e-18
CL25 MX73/M0#g MX74/M0#d 1.48815e-18
CL26 MX91/M0#g MX111/M0#s 1.28937e-18
CL27 3#37 6#21 1.74146e-17
CL28 3#38 6#19 3.63167e-17
CL29 3#38 6#20 8.67116e-17
CL30 3#37 6#19 5.6439e-17
CL31 3#39 6#20 1.3697e-17
CL32 MX83/M0#g MX83/M0#d 7.16335e-18
CL33 MX73/M0#g 5#26 6.79518e-18
CL34 3#41 5#27 5.6745e-18
CL35 MX73/M0#g MX73/M0#d 5.29259e-18
CL36 MX83/M0#g 5#32 4.69129e-18
CL37 MX73/M0#g 5#25 3.59e-18
CL38 3#38 5#33 3.5294e-18
CL39 3#39 MX108/M0#g 2.98254e-18
CL40 3#37 5#40 2.97388e-18
CL41 3#37 5#39 2.95469e-18
CL42 3#39 5 2.90171e-18
CL43 MX73/M0#g 5#36 1.44129e-18
CL44 3#39 5#27 2.15512e-17
CL45 3#38 5#38 1.95536e-17
CL46 3 5#27 9.27672e-18
CL47 3#38 5#32 1.36801e-17
CL48 3#39 5#33 1.26647e-17
CL49 3#38 5#37 1.19885e-17
CL50 MX91/M0#g 5#30 9.27e-18
CL51 MX112/M0#g MX112/M0#s 6.49954e-18
CL52 3#38 4#19 5.33369e-18
CL53 3 MX102/M0#d 4.57251e-18
CL54 3 4#12 3.15253e-18
CL55 3#39 4#19 2.30875e-17
CL56 3#37 4#18 1.82257e-17
CL57 3#39 4#20 2.08847e-17
CL58 MX83/M0#g MX83/M0#s 7.52718e-18
CL59 MX82/M0#d VSS#23 6.01954e-18
CL60 3#40 VSS#43 5.77212e-18
CL61 MX112/M0#g VSS#8 5.74683e-18
CL62 MX82/M0#d VSS#43 5.66554e-18
CL63 3#43 VSS#23 4.99237e-18
CL64 MX91/M0#g VSS#18 4.88426e-18
CL65 MX112/M0#g VSS#43 4.8201e-18
CL66 3#43 MX82/M0#s 4.11893e-18
CL67 MX91/M0#g VSS#43 3.32587e-18
CL68 MX83/M0#g VSS#43 2.91292e-18
CL69 MX82/M0#d MX82/M0#s 1.88068e-17
CL70 3#43 VSS#43 1.74471e-17
RgL235 3 3#22 392.513397 $L=1.31 $W=0.15
RgL236 3#22 3#23 39.939335 $L=0.215 $W=0.27
RgL237 3#23 3#24 39.939335 $L=0.215 $W=0.27
RgL238 3#24 MX112/M0#g 347.526733 $L=1.17 $W=0.15
RgL239 MX73/M0#g 3#25 367.971313 $L=1.145 $W=0.15
RgL240 3#25 3#26 38.857975 $L=0.1645 $W=0.27
RgL241 3#26 3#27 29.410927 $L=0.1645 $W=0.27
RgL242 3#27 MX83/M0#g 322.984650 $L=1.005 $W=0.15
RgL243 MX91/M0#g 3#28 347.526733 $L=1.17 $W=0.15
RgL244 3#28 3#29 39.939335 $L=0.215 $W=0.27
RgL245 3#29 3#30 39.939335 $L=0.215 $W=0.27
RgL246 3#30 MM1#g 392.513397 $L=1.31 $W=0.15
RfL247 3#32 3#33 14.305882 $L=0.19 $W=0.17
RfL248 3#34 3#36 3.764706 $L=0.05 $W=0.17
RfL249 3#37 3#38 147.952942 $L=1.965 $W=0.17
RfL250 3#38 3#39 85.458824 $L=1.135 $W=0.17
RfL251 3#39 3#40 71.529411 $L=0.95 $W=0.17
ReL252 3#41 3#42 0.608696 $L=1.12 $W=0.23
ReL253 3#42 3#43 0.608696 $L=1.12 $W=0.23
RhL254 MX82/M0#d 3#36 15.000000 $A=0.0289
Rh_2_L255 MX72/M0#d 3#32 15.000000 $A=0.0289
RjL256 3#33 3#41 152.000000 $A=0.0289
RjL257 3#40 3#42 152.000000 $A=0.0289
RjL258 3#34 3#43 152.000000 $A=0.0289
RiL259 3#29 3#37 15.000000 $A=0.0289
RiL260 3#26 3#38 15.000000 $A=0.0289
RiL261 3#23 3#39 15.000000 $A=0.0289
RmwL262 MX102/M0#g 3 0.001000 $W=1000000
*
*|NET VSS 4.42262e-15
*|P (VSS X 0 7.6900 0.0050)
*|I (MX115/M0#s MX115/M0 s X 0 10.6495 0.8000)
*|I (MX115/M1#d MX115/M1 d X 0 11.2305 0.8000)
*|I (MX115/M2#s MX115/M2 s X 0 11.5095 0.8000)
*|I (MX115/M3#d MX115/M3 d X 0 12.0905 0.8000)
*|I (MX113/M0#s MX113/M0 s X 0 12.3695 0.8000)
*|I (MX113/M1#d MX113/M1 d X 0 12.9505 0.8000)
*|I (MX113/M2#s MX113/M2 s X 0 13.2295 0.8000)
*|I (MX113/M3#d MX113/M3 d X 0 13.8105 0.8000)
*|I (MX95/M0#s MX95/M0 s X 0 8.8395 0.8000)
*|I (MX95/M1#d MX95/M1 d X 0 9.4205 0.8000)
*|I (MX93/M0#s MX93/M0 s X 0 8.0405 0.8000)
*|I (MX92/M0#s MX92/M0 s X 0 5.7395 0.8000)
*|I (MX83/M0#s MX83/M0 s X 0 4.7895 0.8000)
*|I (MX82/M0#s MX82/M0 s X 0 2.5495 0.8000)
*|I (MX81/M0#s MX81/M0 s X 0 10.3705 0.8000)
*|I (MX80/M0#s MX80/M0 s X 0 0.5505 0.8000)
*|I (MX79/M0#s MX79/M0 s X 0 4.5105 0.8000)
*|I (MX78/M0#s MX78/M0 s X 0 2.2705 0.8000)
*|I (MX71/M0#s MX71/M0 s X 0 0.8295 0.8000)
*|S (VSS#2 13.9500 0.8000)
*|S (VSS#3 14.0650 0.0000)
*|S (VSS#4 13.0900 0.0000)
*|S (VSS#5 12.2300 0.0000)
*|S (VSS#6 11.3700 0.0000)
*|S (VSS#7 10.5800 0.0000)
*|S (VSS#8 10.5800 0.0000)
*|S (VSS#11 13.0900 0.8000)
*|S (VSS#13 12.2300 0.8000)
*|S (VSS#15 11.3700 0.8000)
*|S (VSS#16 9.5600 0.0000)
*|S (VSS#17 8.7000 0.0000)
*|S (VSS#18 8.1800 0.0000)
*|S (VSS#19 5.6000 0.0000)
*|S (VSS#20 4.6500 0.0000)
*|S (VSS#21 3.6800 0.0000)
*|S (VSS#23 2.4100 0.0000)
*|S (VSS#24 0.6900 0.0000)
*|S (VSS#25 0.0000 0.0000)
*|S (VSS#27 10.5100 0.8000)
*|S (VSS#29 9.5600 0.8000)
*|S (VSS#31 8.7000 0.8000)
*|S (VSS#33 8.1800 0.8000)
*|S (VSS#35 5.6000 0.8000)
*|S (VSS#37 4.6500 0.8000)
*|S (VSS#39 2.4100 0.8000)
*|S (VSS#41 0.6900 0.8000)
*|S (VSS#42 10.5800 0.0000)
*|S (VSS#43 3.6800 0.0000)
RfI147 VSS#2 VSS#3 58.977566 $L=0.8 $W=0.17
RfI148 VSS#3 VSS#4 43.234081 $L=0.975 $W=0.25
RfI149 VSS#4 VSS#5 43.481621 $L=0.86 $W=0.25
RfI150 VSS#5 VSS#6 43.481621 $L=0.86 $W=0.25
RfI151 VSS#6 VSS#7 40.172813 $L=0.79 $W=0.25
RfI152 VSS#4 VSS#11 53.627445 $L=0.8 $W=0.17
RfI153 VSS#5 VSS#13 53.627445 $L=0.8 $W=0.17
RfI154 VSS#6 VSS#15 53.627445 $L=0.8 $W=0.17
RfI155 VSS#7 VSS#16 51.948811 $L=1.02 $W=0.25
RfI156 VSS#16 VSS#17 43.481621 $L=0.86 $W=0.25
RfI157 VSS#17 VSS#18 26.073622 $L=0.52 $W=0.25
RfI158 VSS#18 VSS#19 131.545624 $L=2.58 $W=0.25
RfI159 VSS#19 VSS#20 48.089619 $L=0.95 $W=0.25
RfI160 VSS#20 VSS#21 49.388809 $L=0.97 $W=0.25
RfI161 VSS#21 VSS#23 64.748810 $L=1.27 $W=0.25
RfI162 VSS#23 VSS#24 87.513618 $L=1.72 $W=0.25
RfI163 VSS#24 VSS#25 35.052811 $L=0.69 $W=0.25
RfI164 VSS#7 VSS#27 57.223530 $L=0.8 $W=0.17
RfI165 VSS#16 VSS#29 53.627445 $L=0.8 $W=0.17
RfI166 VSS#17 VSS#31 53.627445 $L=0.8 $W=0.17
RfI167 VSS#18 VSS#33 53.627445 $L=0.8 $W=0.17
RfI168 VSS#19 VSS#35 53.627445 $L=0.8 $W=0.17
RfI169 VSS#20 VSS#37 53.627445 $L=0.8 $W=0.17
RfI170 VSS#23 VSS#39 53.627445 $L=0.8 $W=0.17
RfI171 VSS#24 VSS#41 53.627445 $L=0.8 $W=0.17
ReI172 VSS#42 VSS 0.903125 $L=2.89 $W=0.4
ReI173 VSS VSS#43 1.253125 $L=4.01 $W=0.4
RhI174 MX113/M3#d VSS#2 15.000000 $A=0.0289
RhI175 MX113/M1#d VSS#11 15.000000 $A=0.0289
RhI176 MX115/M3#d VSS#13 15.000000 $A=0.0289
RhI177 MX115/M1#d VSS#15 15.000000 $A=0.0289
RhI178 MX115/M0#s VSS#27 15.000000 $A=0.0289
RhI179 MX95/M1#d VSS#29 15.000000 $A=0.0289
RhI180 MX95/M0#s VSS#31 15.000000 $A=0.0289
RhI181 MX93/M0#s VSS#33 15.000000 $A=0.0289
RhI182 MX92/M0#s VSS#35 15.000000 $A=0.0289
RhI183 MX83/M0#s VSS#37 15.000000 $A=0.0289
RhI184 MX82/M0#s VSS#39 15.000000 $A=0.0289
RhI185 MX80/M0#s VSS#41 15.000000 $A=0.0289
Rh_3_I186 VSS#8 VSS#7 1.000000 $A=0.4335
Rh_3_I187 VSS#8 VSS#21 1.000000 $A=0.4335
RjI188 VSS#7 VSS#42 10.133333 $A=0.4335
RjI189 VSS#21 VSS#43 10.133333 $A=0.4335
RmwI190 MX115/M2#s MX115/M1#d 0.001000 $W=1000000
RmwI191 MX113/M0#s MX115/M3#d 0.001000 $W=1000000
RmwI192 MX113/M2#s MX113/M1#d 0.001000 $W=1000000
RmwI193 MX81/M0#s MX115/M0#s 0.001000 $W=1000000
RmwI194 MX79/M0#s MX83/M0#s 0.001000 $W=1000000
RmwI195 MX78/M0#s MX82/M0#s 0.001000 $W=1000000
RmwI196 MX71/M0#s MX80/M0#s 0.001000 $W=1000000
*
*|NET SE 7.48561e-16
*|P (SE X 0 0.9350 1.6500)
*|I (MX90/M0#g MX90/M0 g X 0 1.7650 0.8000)
*|I (MX80/M0#g MX80/M0 g X 0 0.4750 0.8000)
*|I (MX101/M0#g MX101/M0 g X 0 1.3350 3.2800)
*|I (MX76/M0#g MX76/M0 g X 0 0.4750 3.2800)
*|S (SE#15 0.4150 2.1345)
*|S (SE#16 0.4150 1.9700)
*|S (SE#17 0.4150 1.8050)
*|S (SE#18 1.7650 1.9700)
*|S (SE#19 1.4700 1.9700)
*|S (SE#20 1.4700 1.9700)
*|S (SE#21 1.3095 1.9050)
*|S (SE#22 1.1400 1.9050)
*|S (SE#23 0.9200 1.8400)
*|S (SE#24 0.6595 1.9050)
*|S (SE#25 0.4150 1.9700)
*|S (SE#26 0.9200 1.8400)
CE1 MX76/M0#g VSS 5.97319e-19
CE2 MX101/M0#g VSS 4.05118e-18
CE3 MX80/M0#g VSS 1.56399e-17
CE4 MX90/M0#g VSS 2.43603e-17
CE5 SE#25 VSS 2.21806e-17
CE6 SE#22 VSS 5.56045e-18
CE7 SE#21 VSS 1.53201e-17
CE8 SE#23 VSS 6.76326e-18
CE9 SE VSS 6.62982e-18
CE10 SE 40 1.9069e-17
CE11 MX101/M0#g 42 7.70836e-18
CE12 MX76/M0#g 42 2.50706e-18
CE13 MX90/M0#g 40 1.28937e-18
CE14 MX80/M0#g 40 1.99359e-18
CE15 MX101/M0#g 2#3 3.15253e-18
CE16 MX101/M0#g 2#14 2.39864e-18
CE17 SE MX94/M0#d 2.29139e-18
CE18 SE#21 2#14 1.39193e-17
CE19 SE 2#15 7.58041e-17
CE20 SE 2#14 4.64714e-18
CE21 MX90/M0#g MX94/M0#d 6.2356e-18
CE22 SE#21 2#15 1.49835e-17
CE23 MX101/M0#g 2 4.59009e-18
CE24 SE MX80/M0#d 3.46655e-18
CE25 SE#21 MX94/M0#g 3.33477e-18
CE26 MX90/M0#g 1#20 2.28162e-18
CE27 MX80/M0#g 1#25 1.95214e-18
CE28 MX76/M0#g 1#22 1.50468e-18
CE29 SE#23 1#19 1.06551e-18
CE30 MX101/M0#g 1#20 9.27672e-18
CE31 SE 1#23 4.32924e-18
CE32 SE 1#19 1.04312e-17
CE33 MX80/M0#g 1#19 7.10033e-18
CE34 SE 1#18 2.27864e-17
CE35 SE#21 1#18 1.13406e-17
CE36 MX76/M0#g 1#14 4.095e-18
CE37 MX80/M0#g MX80/M0#d 8.12962e-18
CE38 SE#23 1#18 6.73456e-18
CE39 MX76/M0#g 1#21 6.92662e-18
CE40 SE#21 1#20 9.77395e-18
CE41 SE#25 1#21 1.5935e-17
CE42 MX76/M0#g MX76/M0#d 6.02125e-18
CE43 SE#25 1#19 1.93364e-17
CE44 SE#22 1#18 7.01743e-18
CE45 SE#25 1#23 1.49951e-17
CE46 SE 1#25 2.13889e-17
CE47 SE#25 1#24 1.86353e-17
CE48 SE 1#24 4.99927e-17
CE49 SE VSS#24 3.66027e-18
CE50 MX80/M0#g VSS#24 3.64084e-18
CE51 SE#25 VSS#43 2.18366e-18
CE52 MX90/M0#g VSS#43 4.8201e-18
CE53 SE MX80/M0#s 1.0795e-17
CE54 MX90/M0#g VSS#23 5.74683e-18
CE55 MX80/M0#g MX80/M0#s 8.41205e-18
CE56 SE VSS#43 2.20091e-17
CE57 MX80/M0#g VSS#43 4.8201e-18
CE58 MX76/M0#g MX76/M0#s 1.01682e-17
CE59 MX101/M0#g VDD#43 5.21861e-18
CE60 MX76/M0#g VDD#38 3.77064e-18
CE61 MX101/M0#g VDD 1.60341e-17
CE62 MX76/M0#g VDD 1.39295e-17
CE63 MX76/M0#g VDD#43 5.21861e-18
CE64 MX101/M0#g VDD#38 5.04997e-18
CE65 MX90/M0#g SI#11 2.96733e-18
CE66 SE#21 SI#11 1.19905e-17
RgE59 MX76/M0#g SE#15 367.971313 $L=1.145 $W=0.15
RgE60 SE#15 SE#16 38.857975 $L=0.1645 $W=0.27
RgE61 SE#16 SE#17 29.410927 $L=0.1645 $W=0.27
RgE62 SE#17 MX80/M0#g 322.984650 $L=1.005 $W=0.15
RgE63 MX90/M0#g SE#18 347.526733 $L=1.17 $W=0.15
RgE64 SE#18 SE#19 54.220818 $L=0.295 $W=0.27
RgE65 SE#19 MX101/M0#g 420.946655 $L=1.31 $W=0.15
RfE66 SE#20 SE#21 12.057726 $L=0.16 $W=0.17
RfE67 SE#21 SE#22 13.768684 $L=0.169 $W=0.1745
RfE68 SE#22 SE#23 16.575373 $L=0.22 $W=0.17
RfE69 SE#23 SE#24 19.587137 $L=0.26 $W=0.17
RfE70 SE#24 SE#25 11.793457 $L=0.2445 $W=0.3
ReE71 SE SE#26 0.091346 $L=0.19 $W=0.26
RjE72 SE#23 SE#26 152.000000 $A=0.0289
RiE73 SE#19 SE#20 15.000000 $A=0.0289
RiE74 SE#16 SE#25 15.000000 $A=0.0289
*
*|NET SI 4.64335e-16
*|P (SI X 0 2.2950 2.4700)
*|I (MX78/M0#g MX78/M0 g X 0 2.1950 0.8000)
*|I (MX84/M0#g MX84/M0 g X 0 2.1950 3.2800)
*|S (SI#8 2.1950 1.9700)
*|S (SI#9 2.1950 1.8050)
*|S (SI#10 2.3000 1.9700)
*|S (SI#11 2.1950 1.9700)
*|S (SI#12 2.3000 1.9700)
CF1 MX84/M0#g VSS 3.93894e-18
CF2 MX78/M0#g VSS 9.69801e-18
CF3 SI#12 VSS 6.00205e-18
CF4 SI#11 VSS 2.30704e-17
CF5 SI VSS 4.02762e-18
CF6 MX78/M0#g 44 6.21439e-18
CF7 SI 46 5.65644e-18
CF8 MX84/M0#g 46 7.73068e-18
CF9 SI#11 46 4.44985e-18
CF10 SI#11 44 7.38691e-18
CF11 SI 3#33 1.84518e-18
CF12 MX78/M0#g MX82/M0#d 1.31748e-18
CF13 SI#12 3#42 3.89361e-17
CF14 SI#11 3#40 1.20735e-17
CF15 SI#12 3#40 3.68278e-18
CF16 SI 3#42 2.0388e-17
CF17 SI 3#41 3.95765e-17
CF18 SI#11 3#42 3.13509e-18
CF19 MX84/M0#g 2#14 2.11248e-18
CF20 MX78/M0#g MX94/M0#d 1.31748e-18
CF21 SI 2#3 1.23565e-18
CF22 SI#12 2#15 1.03464e-17
CF23 SI#11 2#15 3.23919e-18
CF24 SI 2#14 5.63264e-17
CF25 SI#12 2#14 1.4569e-17
CF26 SI#11 2#14 7.32785e-18
CF27 SI 1#20 1.25431e-17
CF28 SI#11 1#20 9.24749e-18
CF29 MX78/M0#g VSS#43 2.71481e-18
CF30 MX78/M0#g VSS#23 3.90205e-18
CF31 SI#11 VSS#43 4.55576e-18
CF32 MX78/M0#g MX82/M0#s 7.18778e-18
CF33 SI#11 MX84/M0#s 1.55377e-18
CF34 MX84/M0#g MX84/M0#s 8.68341e-18
CF35 SI MX84/M0#s 1.72428e-17
CF36 MX84/M0#g VDD#43 2.59032e-18
CF37 SI#12 VDD 2.85087e-18
CF38 SI VDD 9.69804e-18
CF39 MX84/M0#g VDD#35 4.31255e-18
CF40 MX84/M0#g VDD 6.99704e-18
RgF75 MX84/M0#g SI#8 402.105774 $L=1.31 $W=0.15
RgF76 SI#8 SI#9 34.134449 $L=0.1645 $W=0.27
RgF77 SI#9 MX78/M0#g 322.984650 $L=1.005 $W=0.15
RfF78 SI#10 SI#11 7.905882 $L=0.105 $W=0.17
ReF79 SI SI#12 0.240385 $L=0.5 $W=0.26
RjF80 SI#10 SI#12 152.000000 $A=0.0289
RiF81 SI#8 SI#11 15.000000 $A=0.0289
*
*|NET 40 1.19425e-16
*|I (MX94/M0#s MX94/M0 s X 0 1.2595 0.8000)
*|I (MX71/M0#d MX71/M0 d X 0 0.9805 0.8000)
*|S (40 1.1200 0.8000)
CS1 40 VSS 8.75569e-18
CS2 40 VSS#43 6.96717e-18
CS3 40 VSS#24 6.01954e-18
CS4 40 MX80/M0#s 2.04317e-17
RmwS414 MX94/M0#s 40 0.001000 $W=1000000
RmwS415 MX71/M0#d 40 0.001000 $W=1000000
*
*|NET 42 1.52076e-16
*|I (MX101/M0#s MX101/M0 s X 0 1.2595 3.2800)
*|I (MM0#d MM0 d X 0 0.9805 3.2800)
*|S (42 1.1200 3.2350)
RmwS416 MX101/M0#s 42 0.001000 $W=1000000
RmwS417 MM0#d 42 0.001000 $W=1000000
*
*|NET 44 9.763e-17
*|I (MX90/M0#s MX90/M0 s X 0 1.8405 0.8000)
*|I (MX78/M0#d MX78/M0 d X 0 2.1195 0.8000)
*|S (44 1.9800 0.8000)
CS5 44 VSS 1.4225e-17
CS6 44 VSS#23 6.01954e-18
CS7 44 VSS#43 7.97535e-18
CS8 44 MX82/M0#s 1.8931e-17
RmwS418 MX90/M0#s 44 0.001000 $W=1000000
RmwS419 MX78/M0#d 44 0.001000 $W=1000000
*
*|NET 46 1.5008e-16
*|I (MX88/M0#s MX88/M0 s X 0 1.8405 3.2800)
*|I (MX84/M0#d MX84/M0 d X 0 2.1195 3.2800)
*|S (46 1.9800 3.2350)
CS9 46 VSS 4.18118e-18
RmwS420 MX88/M0#s 46 0.001000 $W=1000000
RmwS421 MX84/M0#d 46 0.001000 $W=1000000
*
*|NET 48 1.17904e-16
*|I (MX108/M0#s MX108/M0 s X 0 4.0805 0.8000)
*|I (MX79/M0#d MX79/M0 d X 0 4.3595 0.8000)
*|S (48 4.2200 0.8000)
CS10 48 VSS 1.17392e-17
CS11 48 VSS#43 5.34191e-18
CS12 48 MX83/M0#s 1.91749e-17
CS13 48 VSS#8 2.80522e-18
CS14 48 VSS#20 3.19094e-18
RmwS422 MX108/M0#s 48 0.001000 $W=1000000
RmwS423 MX79/M0#d 48 0.001000 $W=1000000
*
*|NET 50 1.3121e-16
*|I (MX102/M0#s MX102/M0 s X 0 4.0805 3.2800)
*|I (MX85/M0#d MX85/M0 d X 0 4.3595 3.2800)
*|S (50 4.2200 3.2350)
CS15 50 VSS 2.28482e-17
RmwS424 MX102/M0#s 50 0.001000 $W=1000000
RmwS425 MX85/M0#d 50 0.001000 $W=1000000
*
*|NET 52 1.10545e-16
*|I (MX109/M0#s MX109/M0 s X 0 6.1695 0.8000)
*|I (MX92/M0#d MX92/M0 d X 0 5.8905 0.8000)
*|S (52 6.0300 0.8000)
CS16 52 VSS 8.0771e-18
CS17 52 VSS#43 5.3592e-18
CS18 52 VSS#19 6.01954e-18
CS19 52 MX92/M0#s 1.97016e-17
RmwS426 MX109/M0#s 52 0.001000 $W=1000000
RmwS427 MX92/M0#d 52 0.001000 $W=1000000
*
*|NET 4 1.78483e-15
*|I (MX112/M0#s MX112/M0 s X 0 3.6505 0.8000)
*|I (MX109/M0#g MX109/M0 g X 0 6.2450 0.8000)
*|I (MX108/M0#d MX108/M0 d X 0 3.9295 0.8000)
*|I (MX102/M0#d MX102/M0 d X 0 3.9295 3.2800)
*|I (MX89/M0#d MX89/M0 d X 0 3.6505 3.2800)
*|I (MX86/M0#g MX86/M0 g X 0 6.2450 3.2800)
*|S (4 6.2450 3.2800)
*|S (4#8 6.2450 2.6500)
*|S (4#9 6.2450 2.4850)
*|S (4#11 3.7900 3.2800)
*|S (4#12 3.7900 3.0900)
*|S (4#13 3.7900 0.8500)
*|S (4#15 3.7900 0.8000)
*|S (4#16 6.2450 2.6500)
*|S (4#17 6.0300 2.6500)
*|S (4#18 6.0300 2.6500)
*|S (4#19 3.7900 0.8500)
*|S (4#20 3.7900 3.0900)
CM1 MX102/M0#d VSS 1.10217e-18
CM2 MX109/M0#g VSS 2.29551e-17
CM3 MX112/M0#s VSS 6.16771e-18
CM4 4#20 VSS 1.37673e-17
CM5 4#19 VSS 3.23806e-17
CM6 4#18 VSS 1.32885e-17
CM7 4#16 VSS 5.40308e-18
CM8 4#12 VSS 5.18724e-18
CM9 4#17 VSS 1.86109e-18
CM10 4 VSS 5.90359e-18
CM11 4#20 50 5.85189e-18
CM12 4#18 52 2.02879e-17
CM13 4#19 48 2.62744e-17
CM14 4#12 50 8.31776e-18
CM15 MX112/M0#s 48 1.87389e-17
CM16 MX109/M0#g 52 6.2356e-18
CM17 MX102/M0#d 50 1.79285e-17
CM18 4#16 6#21 8.10732e-18
CM19 MX109/M0#g MX111/M0#s 6.2356e-18
CM20 4 MX86/M0#d 4.57251e-18
CM21 4#18 MX111/M0#s 3.75111e-18
CM22 4#19 6#20 3.17458e-18
CM23 4 6#15 3.15253e-18
CM24 4#19 MX79/M0#g 2.09632e-18
CM25 4 6#19 1.50882e-18
CM26 4#17 6#19 2.29029e-17
CM27 4#16 6#22 1.15111e-17
CM28 4#18 6#22 2.26615e-17
CM29 4#16 6#15 1.35469e-17
CM30 4#16 6#19 2.75674e-17
CM31 4#18 6#19 1.85758e-17
CM32 4#18 6#21 1.10811e-16
CM33 4#20 6#20 1.11848e-17
CM34 4#18 6#23 1.89285e-17
CM35 4#18 6#25 9.03463e-17
CM36 4#20 5#36 8.08665e-18
CM37 MX112/M0#s MX108/M0#g 6.2356e-18
CM38 MX102/M0#d 5 4.82703e-18
CM39 4#18 5#32 4.68271e-18
CM40 4#16 5#29 4.11239e-18
CM41 4#18 5#37 3.83309e-18
CM42 4#12 5 3.37911e-18
CM43 4#19 MX108/M0#g 2.38356e-18
CM44 4#17 5#26 2.15549e-18
CM45 4#19 5#38 5.52009e-17
CM46 4#20 5#37 1.40625e-17
CM47 MX109/M0#g 5#31 9.27e-18
CM48 4#12 5#27 2.15361e-17
CM49 MX112/M0#s 5#33 1.34272e-17
CM50 4#18 5#38 1.07726e-17
CM51 4#18 5#31 2.6754e-17
CM52 4#19 5#33 3.98413e-17
CM53 4#20 5#27 3.74722e-17
CM54 4#19 5#32 1.66348e-17
CM55 4#19 MX83/M0#d 2.15737e-17
CM56 4#19 VSS#20 7.74282e-18
CM57 4#19 VSS#8 7.67199e-18
CM58 MX112/M0#s VSS#8 7.24683e-18
CM59 4#18 VSS#19 6.00319e-18
CM60 MX112/M0#s VSS#43 5.66554e-18
CM61 MX109/M0#g VSS#19 4.87612e-18
CM62 MX109/M0#g VSS#43 4.8201e-18
CM63 4#19 MX92/M0#s 2.55344e-17
CM64 4#18 VSS#43 2.77485e-17
CM65 4#19 MX83/M0#s 2.73535e-17
CM66 4#19 VSS#43 1.00382e-16
RgM263 4 4#8 183.599075 $L=0.63 $W=0.15
RgM264 4#8 4#9 34.134449 $L=0.1645 $W=0.27
RgM265 4#9 MX109/M0#g 541.491272 $L=1.685 $W=0.15
RfM266 4#11 4#12 14.305882 $L=0.19 $W=0.17
RfM267 4#13 4#15 3.764706 $L=0.05 $W=0.17
RfM268 4#16 4#17 16.188236 $L=0.215 $W=0.17
ReM269 4#18 4#19 2.156798 $L=4.07 $W=0.23
ReM270 4#19 4#20 1.217391 $L=2.24 $W=0.23
RhM271 MX112/M0#s 4#15 15.000000 $A=0.0289
Rh_2_M272 MX102/M0#d 4#11 15.000000 $A=0.0289
RjM273 4#17 4#18 152.000000 $A=0.0289
RjM274 4#13 4#19 152.000000 $A=0.0289
RjM275 4#12 4#20 152.000000 $A=0.0289
RiM276 4#8 4#16 15.000000 $A=0.0289
RmwM277 MX108/M0#d MX112/M0#s 0.001000 $W=1000000
RmwM278 MX89/M0#d MX102/M0#d 0.001000 $W=1000000
RmwM279 MX86/M0#g 4 0.001000 $W=1000000
*
*|NET 7 1.55263e-15
*|I (MX111/M0#d MX111/M0 d X 0 6.7505 0.8000)
*|I (MX95/M0#g MX95/M0 g X 0 8.9150 0.8000)
*|I (MX95/M1#g MX95/M1 g X 0 9.3450 0.8000)
*|I (MX91/M0#d MX91/M0 d X 0 7.0295 0.8000)
*|I (MX119/M0#g MX119/M0 g X 0 8.9150 3.2800)
*|I (MX119/M1#g MX119/M1 g X 0 9.3450 3.2800)
*|I (MX118/M0#d MX118/M0 d X 0 7.0295 3.2800)
*|I (MM1#d MM1 d X 0 6.7505 3.2800)
*|S (7 8.9150 3.2800)
*|S (7#15 9.3450 2.3100)
*|S (7#16 9.1300 2.3100)
*|S (7#17 8.9000 2.3100)
*|S (7#18 8.9000 2.1450)
*|S (7#19 9.3600 2.1450)
*|S (7#20 8.9000 2.4745)
*|S (7#22 6.8900 3.2800)
*|S (7#23 6.8900 3.0900)
*|S (7#24 6.8900 0.8500)
*|S (7#26 6.8900 0.8000)
*|S (7#27 9.1300 2.3100)
*|S (7#28 6.8900 2.3100)
*|S (7#29 6.8900 3.0900)
*|S (7#30 6.8900 2.3100)
*|S (7#31 6.8900 0.8500)
CP1 MX118/M0#d VSS 3.77813e-18
CP2 MX119/M1#g VSS 4.00898e-18
CP3 MX95/M1#g VSS 2.21612e-17
CP4 MX95/M0#g VSS 2.06705e-17
CP5 MX111/M0#d VSS 2.80038e-18
CP6 7#31 VSS 2.38329e-17
CP7 7#30 VSS 2.78551e-18
CP8 7#29 VSS 1.4084e-17
CP9 7#27 VSS 2.95064e-18
CP10 7#28 VSS 4.69883e-18
CP11 7#23 VSS 7.73381e-18
CP12 7 VSS 2.50721e-18
CP13 7#28 62#7 1.81914e-18
CP14 7#29 62 1.62806e-18
CP15 7 MX75/M0#d 1.51299e-18
CP16 7 62#6 8.42957e-19
CP17 7#23 62#8 2.59179e-18
CP18 7#23 62#3 1.16967e-17
CP19 7#27 62#6 7.93248e-18
CP20 7#29 62#8 3.90452e-17
CP21 7#29 62#3 3.34282e-18
CP22 MX118/M0#d 62 1.86906e-17
CP23 7#27 62#7 1.01293e-17
CP24 7#28 62#8 5.62644e-18
CP25 MX111/M0#d 54 1.93352e-17
CP26 7#31 54 6.82136e-18
CP27 7#27 36#42 5.87109e-18
CP28 7#27 36#43 3.87714e-18
CP29 MX95/M1#g MX95/M0#d 4.27895e-18
CP30 MX95/M0#g MX95/M0#d 4.27895e-18
CP31 MX95/M1#g 8#55 3.71177e-18
CP32 7#30 8#56 2.689e-18
CP33 MX95/M0#g 8#55 2.51685e-18
CP34 MX95/M1#g 8#57 2.24364e-18
CP35 MX95/M0#g 8#57 2.24364e-18
CP36 7#28 8 2.13939e-18
CP37 MX119/M1#g 8#60 1.7698e-18
CP38 7 8#60 1.7253e-18
CP39 7#29 8#52 1.39237e-18
CP40 7#31 8#57 1.31845e-18
CP41 MX111/M0#d MX110/M0#g 1.31748e-18
CP42 7#27 8#56 3.56491e-17
CP43 MX119/M1#g 8#52 8.09421e-18
CP44 7#28 8#56 4.94797e-17
CP45 7#27 8#52 1.72634e-17
CP46 7#27 8#55 9.05111e-17
CP47 7 8#52 8.09421e-18
CP48 7#27 8#60 2.85751e-17
CP49 7#27 8#61 1.50468e-17
CP50 MX111/M0#d VSS#43 5.34191e-18
CP51 MX111/M0#d VSS#19 3.62342e-18
CP52 MX111/M0#d VSS#18 3.60004e-18
CP53 MX95/M0#g VSS#17 2.8351e-18
CP54 MX95/M1#g VSS#16 2.8351e-18
CP55 MX95/M0#g MX93/M0#s 2.46411e-18
CP56 7#31 VSS#19 2.30386e-18
CP57 7#31 VSS#18 2.27909e-18
CP58 7#31 VSS#43 2.07771e-17
CP59 MX95/M0#g MX95/M0#s 8.28924e-18
CP60 MX95/M1#g MX95/M1#d 8.28924e-18
RgP332 MX119/M1#g 7#15 305.215363 $L=0.97 $W=0.15
RgP333 7#15 7#16 20.521515 $L=0.22 $W=0.33
RgP334 7#16 7#17 20.521515 $L=0.22 $W=0.33
RgP335 7#17 7#18 45.128002 $L=0.1645 $W=0.18
RgP336 7#18 MX95/M0#g 432.260284 $L=1.345 $W=0.15
RgP337 7#15 7#19 45.128002 $L=0.1645 $W=0.18
RgP338 7#19 MX95/M1#g 432.260284 $L=1.345 $W=0.15
RgP339 7#17 7#20 45.132114 $L=0.1645 $W=0.18
RgP340 7#20 7 258.740265 $L=0.805 $W=0.15
RfP341 7#22 7#23 14.305882 $L=0.19 $W=0.17
RfP342 7#24 7#26 3.764706 $L=0.05 $W=0.17
RfP343 7#27 7#28 168.658813 $L=2.24 $W=0.17
ReP344 7#29 7#30 0.423913 $L=0.78 $W=0.23
ReP345 7#30 7#31 0.793478 $L=1.46 $W=0.23
RhP346 MX111/M0#d 7#26 15.000000 $A=0.0289
Rh_2_P347 MX118/M0#d 7#22 15.000000 $A=0.0289