*
*|DSPF 1.5
*
*|DATE "Fri Feb 28 12:21:44 2025"
*|VENDOR "Cadence Design Systems"
*|PROGRAM "Cadence Quantus Extraction"
*|VERSION "22.1.0-p089 Linux 64 bit - (Thu Jan 19 11:47:08 PST 2023)"
*|DESIGN "SDFFRX1_LP"
*|DIVIDER /
*|DELIMITER #
*|DeviceFingerDelim "@"
*|BUSBIT []
*|GLOBAL_TEMPERATURE 25
*|OPERATING_TEMPERATURE 25
** QRC_TECH_DIR /vols/wfo_devel/projects/reference_SKY130/tech/sky130_release_0.0.4/quantus/extraction/typical 
** HIERARCHICAL_SPLIT_PINS_DELIMITER '%'
** caps2d version: 10
*
.SUBCKT  SDFFRX1_LP CK D Q QN RN SE SI VDD VSS
*
*Net Section
*
*|GROUND_NET VSS
*
*|NET 3 1.7655e-15
*|I (MX110/M0#g MX110/M0 g X 0 7.1050 0.8000)
*|I (MX103/M0#g MX103/M0 g X 0 3.5750 0.8000)
*|I (MX81/M0#d MX81/M0 d X 0 2.7005 0.8000)
*|I (MX79/M0#g MX79/M0 g X 0 5.8150 0.8000)
*|I (MX84/M0#g MX84/M0 g X 0 6.6750 3.2800)
*|I (MX75/M0#g MX75/M0 g X 0 4.0050 3.2800)
*|I (MX72/M0#g MX72/M0 g X 0 5.8150 3.2800)
*|I (MX68/M0#d MX68/M0 d X 0 2.7005 3.2800)
*|S (3 4.0050 3.2800)
*|S (3#22 4.0050 1.9700)
*|S (3#23 3.7900 1.9700)
*|S (3#24 3.5750 1.9700)
*|S (3#25 5.8150 1.9700)
*|S (3#26 5.8150 1.8050)
*|S (3#27 7.1050 1.9700)
*|S (3#28 6.8900 1.9700)
*|S (3#29 6.6750 1.9700)
*|S (3#31 2.8400 3.2800)
*|S (3#32 2.8400 3.1750)
*|S (3#33 2.8400 0.8500)
*|S (3#35 2.8400 0.8000)
*|S (3#36 6.8900 1.9700)
*|S (3#37 5.8150 1.9700)
*|S (3#38 3.7900 1.9700)
*|S (3#39 2.8400 1.9700)
*|S (3#40 2.8400 3.1750)
*|S (3#41 2.8400 1.9700)
*|S (3#42 2.8400 0.8500)
CL1 MX72/M0#g VSS 3.10383e-18
CL2 MX84/M0#g VSS 7.10474e-18
CL3 MX79/M0#g VSS 2.06834e-17
CL4 MX81/M0#d VSS 4.15128e-18
CL5 MX103/M0#g VSS 2.00988e-17
CL6 MX110/M0#g VSS 3.04958e-17
CL7 3#42 VSS 6.60507e-18
CL8 3#41 VSS 1.09883e-17
CL9 3#40 VSS 4.77337e-18
CL10 3#38 VSS 3.65409e-17
CL11 3#37 VSS 2.91438e-17
CL12 3#36 VSS 1.65498e-17
CL13 3#39 VSS 2.84936e-17
CL14 3#32 VSS 3.50476e-18
CL15 3 VSS 4.50414e-18
CL16 MX72/M0#g 56#6 2.03753e-18
CL17 3 56#9 1.27099e-18
CL18 3#37 56#8 9.42642e-19
CL19 3 56#3 6.79329e-18
CL20 3#38 56#9 3.79587e-18
CL21 MX110/M0#g MX110/M0#d 6.2356e-18
CL22 3#36 7#19 2.33481e-17
CL23 3#36 7#17 1.37063e-17
CL24 MX84/M0#g 7#12 6.79664e-18
CL25 MX84/M0#g 6#12 6.79664e-18
CL26 MX84/M0#g 6#16 4.14088e-18
CL27 3#38 MX109/M0#g 2.98254e-18
CL28 MX72/M0#g 6#12 1.42417e-18
CL29 3#37 6#19 9.09137e-18
CL30 3#37 6#17 5.13187e-17
CL31 3#37 6#16 6.9694e-17
CL32 3#36 6#19 1.199e-17
CL33 3#36 6#16 2.56309e-17
CL34 3#38 6#17 5.08246e-17
CL35 MX72/M0#g 6#16 7.30743e-18
CL36 MX72/M0#g 5#25 7.80226e-18
CL37 MX79/M0#g MX79/M0#d 7.13214e-18
CL38 MX79/M0#g 5#35 6.9216e-18
CL39 3#36 5#32 5.45858e-18
CL40 3#40 5#30 4.23757e-18
CL41 3#38 MX108/M0#g 2.98254e-18
CL42 3#38 5 2.90171e-18
CL43 3#32 5 1.92164e-18
CL44 MX79/M0#g 5#40 1.90946e-18
CL45 3#41 5#30 1.39298e-18
CL46 3#37 5#39 1.16869e-17
CL47 3#37 5#38 1.16107e-17
CL48 MX110/M0#g 5#34 9.27e-18
CL49 3#38 5#36 2.09184e-17
CL50 3#38 5#30 2.0167e-17
CL51 3 5#30 8.84198e-18
CL52 3 4#12 6.80947e-18
CL53 MX103/M0#g MX108/M0#d 6.49954e-18
CL54 3#37 4#18 5.35045e-18
CL55 MX72/M0#g 4#18 5.08324e-18
CL56 3 4#19 4.57179e-18
CL57 3#38 4#19 1.67889e-17
CL58 3#38 4#20 2.50087e-17
CL59 MX79/M0#g MX93/M0#s 6.57799e-18
CL60 MX81/M0#d VSS#12 6.01954e-18
CL61 3#39 VSS#30 5.77212e-18
CL62 MX103/M0#g VSS#5 5.74683e-18
CL63 MX81/M0#d VSS#30 5.66554e-18
CL64 3#38 VSS#30 5.61505e-18
CL65 3#42 VSS#12 4.99237e-18
CL66 MX110/M0#g VSS#7 4.88426e-18
CL67 MX79/M0#g VSS#30 4.8201e-18
CL68 MX103/M0#g VSS#30 4.8201e-18
CL69 3#42 MX81/M0#s 4.0494e-18
CL70 MX79/M0#g VSS#8 3.64084e-18
CL71 MX81/M0#d MX81/M0#s 1.9347e-17
CL72 3#42 VSS#30 1.74471e-17
RgL175 3 3#22 392.513397 $L=1.31 $W=0.15
RgL176 3#22 3#23 39.939335 $L=0.215 $W=0.27
RgL177 3#23 3#24 39.939335 $L=0.215 $W=0.27
RgL178 3#24 MX103/M0#g 347.526733 $L=1.17 $W=0.15
RgL179 MX72/M0#g 3#25 402.105774 $L=1.31 $W=0.15
RgL180 3#25 3#26 34.134449 $L=0.1645 $W=0.27
RgL181 3#26 MX79/M0#g 322.984650 $L=1.005 $W=0.15
RgL182 MX110/M0#g 3#27 347.526733 $L=1.17 $W=0.15
RgL183 3#27 3#28 39.939335 $L=0.215 $W=0.27
RgL184 3#28 3#29 39.939335 $L=0.215 $W=0.27
RgL185 3#29 MX84/M0#g 392.513397 $L=1.31 $W=0.15
RfL186 3#31 3#32 7.905882 $L=0.105 $W=0.17
RfL187 3#33 3#35 3.764706 $L=0.05 $W=0.17
RfL188 3#36 3#37 80.941177 $L=1.075 $W=0.17
RfL189 3#37 3#38 152.470596 $L=2.025 $W=0.17
RfL190 3#38 3#39 71.529411 $L=0.95 $W=0.17
ReL191 3#40 3#41 0.654891 $L=1.205 $W=0.23
ReL192 3#41 3#42 0.608696 $L=1.12 $W=0.23
RhL193 MX81/M0#d 3#35 15.000000 $A=0.0289
Rh_2_L194 MX68/M0#d 3#31 15.000000 $A=0.0289
RjL195 3#32 3#40 152.000000 $A=0.0289
RjL196 3#39 3#41 152.000000 $A=0.0289
RjL197 3#33 3#42 152.000000 $A=0.0289
RiL198 3#28 3#36 15.000000 $A=0.0289
RiL199 3#25 3#37 15.000000 $A=0.0289
RiL200 3#23 3#38 15.000000 $A=0.0289
RmwL201 MX75/M0#g 3 0.001000 $W=1000000
*
*|NET 4 1.91874e-15
*|I (MX108/M0#d MX108/M0 d X 0 3.9295 0.8000)
*|I (MX103/M0#s MX103/M0 s X 0 3.6505 0.8000)
*|I (MX93/M0#g MX93/M0 g X 0 6.2450 0.8000)
*|I (MX107/M0#g MX107/M0 g X 0 6.2450 3.2800)
*|I (MX90/M0#d MX90/M0 d X 0 3.6505 3.2800)
*|I (MX75/M0#d MX75/M0 d X 0 3.9295 3.2800)
*|S (4 6.2450 3.2800)
*|S (4#8 6.2450 2.6500)
*|S (4#9 6.2450 2.4850)
*|S (4#11 3.7900 3.2800)
*|S (4#12 3.7900 3.1750)
*|S (4#13 3.7900 0.8500)
*|S (4#15 3.7900 0.8000)
*|S (4#16 6.2450 2.6500)
*|S (4#17 6.0300 2.6500)
*|S (4#18 6.0300 2.6500)
*|S (4#19 3.7900 3.1750)
*|S (4#20 3.7900 0.8500)
CM1 MX93/M0#g VSS 2.87095e-17
CM2 MX108/M0#d VSS 1.09624e-17
CM3 4#20 VSS 3.37366e-17
CM4 4#19 VSS 5.38449e-18
CM5 4#18 VSS 1.28521e-17
CM6 4#16 VSS 6.6146e-18
CM7 4#12 VSS 3.05241e-18
CM8 4#17 VSS 4.09351e-19
CM9 4 VSS 6.06311e-18
CM10 4#19 56#8 3.50146e-17
CM11 4#12 56#3 2.32733e-17
CM12 4#19 56#6 1.0345e-17
CM13 4#12 56#9 3.38315e-18
CM14 4#19 56#9 8.47298e-17
CM15 4#19 56#3 1.5263e-17
CM16 4#18 56#8 5.40688e-18
CM17 4#20 43 6.82136e-18
CM18 MX108/M0#d 43 1.93352e-17
CM19 4 6#12 6.79664e-18
CM20 MX93/M0#g MX102/M0#d 6.2356e-18
CM21 4#19 6 2.30944e-18
CM22 4 6#16 1.50882e-18
CM23 4#16 6#12 9.37441e-18
CM24 4#16 6#19 1.35401e-17
CM25 4#18 6#12 7.327e-18
CM26 4#18 6#16 9.84448e-18
CM27 4#19 6#17 1.11526e-17
CM28 4#17 6#16 2.33063e-17
CM29 4#18 6#18 6.3021e-17
CM30 4#18 6#19 2.94338e-17
CM31 4#16 6#16 2.83433e-17
CM32 MX93/M0#g 5#34 9.27e-18
CM33 4#18 5#29 7.67129e-18
CM34 4#12 5 7.06451e-18
CM35 MX108/M0#d MX108/M0#g 6.2356e-18
CM36 4#16 5#32 4.32459e-18
CM37 4#17 5#38 3.69171e-18
CM38 4#19 5 1.90391e-18
CM39 4#18 5#35 1.83707e-18
CM40 4#20 5#36 2.73695e-17
CM41 4#17 5#29 1.30951e-17
CM42 4#19 5#30 4.6369e-17
CM43 4#18 5#38 4.7586e-17
CM44 4#18 5#37 7.56274e-17
CM45 4#12 5#30 1.49029e-17
CM46 MX108/M0#d 5#36 1.20501e-17
CM47 4#18 5#25 1.4502e-17
CM48 MX108/M0#d VSS#5 7.24683e-18
CM49 MX93/M0#g MX93/M0#s 6.21439e-18
CM50 MX108/M0#d VSS#30 5.66554e-18
CM51 4#20 VSS#5 4.99237e-18
CM52 MX93/M0#g VSS#8 4.87612e-18
CM53 4#20 VSS#30 2.07771e-17
RgM202 4 4#8 183.599075 $L=0.63 $W=0.15
RgM203 4#8 4#9 34.134449 $L=0.1645 $W=0.27
RgM204 4#9 MX93/M0#g 541.491272 $L=1.685 $W=0.15
RfM205 4#11 4#12 7.905882 $L=0.105 $W=0.17
RfM206 4#13 4#15 3.764706 $L=0.05 $W=0.17
RfM207 4#16 4#17 16.188236 $L=0.215 $W=0.17
ReM208 4#18 4#19 1.930443 $L=3.755 $W=0.23
ReM209 4#19 4#20 1.263587 $L=2.325 $W=0.23
RhM210 MX108/M0#d 4#15 15.000000 $A=0.0289
Rh_2_M211 MX90/M0#d 4#11 15.000000 $A=0.0289
RjM212 4#17 4#18 152.000000 $A=0.0289
RjM213 4#12 4#19 152.000000 $A=0.0289
RjM214 4#13 4#20 152.000000 $A=0.0289
RiM215 4#8 4#16 15.000000 $A=0.0289
RmwM216 MX103/M0#s MX108/M0#d 0.001000 $W=1000000
RmwM217 MX107/M0#g 4 0.001000 $W=1000000
RmwM218 MX75/M0#d MX90/M0#d 0.001000 $W=1000000
*
*|NET 1 1.15815e-15
*|I (MX85/M0#g MX85/M0 g X 0 1.3350 0.8000)
*|I (MX78/M0#d MX78/M0 d X 0 0.3995 0.8000)
*|I (MX95/M0#g MX95/M0 g X 0 1.7650 3.2800)
*|I (MX71/M0#d MX71/M0 d X 0 0.3995 3.2800)
*|S (1 1.7650 3.2800)
*|S (1#8 1.3350 1.1250)
*|S (1#9 1.3350 1.2900)
*|S (1#10 1.7650 2.8145)
*|S (1#11 1.7650 2.6500)
*|S (1#13 0.2600 3.2800)
*|S (1#14 0.2600 3.1750)
*|S (1#15 0.2600 0.8500)
*|S (1#17 0.2600 0.8000)
*|S (1#18 1.3350 1.2900)
*|S (1#19 0.2600 1.2900)
*|S (1#20 1.7650 2.6500)
*|S (1#21 0.2600 2.6500)
*|S (1#22 0.2600 3.1750)
*|S (1#23 0.2600 2.6500)
*|S (1#24 0.2600 1.2900)
*|S (1#25 0.2600 0.8500)
CJ1 MX78/M0#d VSS 1.01109e-17
CJ2 MX85/M0#g VSS 2.06786e-17
CJ3 1#25 VSS 1.90814e-17
CJ4 1#24 VSS 4.34735e-17
CJ5 1#23 VSS 3.79224e-18
CJ6 1#22 VSS 1.25605e-18
CJ7 1#20 VSS 5.57446e-18
CJ8 1#18 VSS 2.21554e-17
CJ9 1#19 VSS 2.67481e-17
CJ10 1#21 VSS 1.78182e-18
CJ11 1#14 VSS 1.3265e-18
CJ12 1 VSS 3.22905e-18
CJ13 1#18 35 2.31262e-17
CJ14 MX85/M0#g 35 6.21439e-18
CJ15 1#20 41 1.10404e-17
CJ16 1#25 35 1.78316e-18
CJ17 1#20 37 1.66408e-17
CJ18 1#22 37 1.42225e-18
CJ19 1 41 7.72091e-18
CJ20 1 37 1.59138e-18
CJ21 1 2#14 5.22445e-18
CJ22 1#23 2#14 1.53165e-18
CJ23 1#18 2#15 1.99401e-17
CJ24 1 2#3 6.80947e-18
CJ25 MX85/M0#g MX101/M0#d 6.2356e-18
CJ26 1#18 MX101/M0#d 1.34272e-17
CJ27 1#20 2#14 4.69741e-17
CJ28 1#20 2#3 1.49029e-17
CJ29 1#18 VSS#30 5.52342e-18
CJ30 MX78/M0#d VSS#30 5.34191e-18
CJ31 MX85/M0#g VSS#13 4.87612e-18
CJ32 MX85/M0#g VSS#30 4.8201e-18
CJ33 MX78/M0#d VSS#14 4.62862e-18
CJ34 1#18 VSS#13 2.92793e-18
CJ35 1#25 VSS#14 2.56264e-18
CJ36 1#25 VSS#13 1.65056e-18
CJ37 1 VSS#30 1.37737e-18
CJ38 1#25 VSS#30 1.75153e-17
CJ39 1#19 VSS#30 5.8356e-18
CJ40 1#19 MX88/M0#s 1.67375e-17
CJ41 1#25 MX88/M0#s 6.36483e-18
CJ42 MX78/M0#d MX88/M0#s 2.08315e-17
RgJ137 MX85/M0#g 1#8 104.477959 $L=0.325 $W=0.15
RgJ138 1#8 1#9 34.134449 $L=0.1645 $W=0.27
RgJ139 1 1#10 149.464630 $L=0.465 $W=0.15
RgJ140 1#10 1#11 34.134449 $L=0.1645 $W=0.27
RfJ141 1#13 1#14 7.905882 $L=0.105 $W=0.17
RfJ142 1#15 1#17 3.764706 $L=0.05 $W=0.17
RfJ143 1#18 1#19 80.941177 $L=1.075 $W=0.17
RfJ144 1#20 1#21 113.317642 $L=1.505 $W=0.17
ReJ145 1#22 1#23 0.282065 $L=0.525 $W=0.23
ReJ146 1#23 1#24 0.735777 $L=1.36 $W=0.23
ReJ147 1#24 1#25 0.235870 $L=0.44 $W=0.23
RhJ148 MX78/M0#d 1#17 15.000000 $A=0.0289
Rh_2_J149 MX71/M0#d 1#13 15.000000 $A=0.0289
RjJ150 1#14 1#22 152.000000 $A=0.0289
RjJ151 1#21 1#23 152.000000 $A=0.0289
RjJ152 1#19 1#24 152.000000 $A=0.0289
RjJ153 1#15 1#25 152.000000 $A=0.0289
RiJ154 1#9 1#18 15.000000 $A=0.0289
RiJ155 1#11 1#20 15.000000 $A=0.0289
RmwJ156 MX95/M0#g 1 0.001000 $W=1000000
*
*|NET 8 1.46425e-15
*|I (MX92/M0#g MX92/M0 g X 0 9.3450 0.8000)
*|I (MX89/M0#d MX89/M0 d X 0 8.4705 0.8000)
*|I (MX80/M0#g MX80/M0 g X 0 10.7250 0.8000)
*|I (MX77/M0#g MX77/M0 g X 0 7.5350 0.8000)
*|I (MX104/M0#g MX104/M0 g X 0 7.5350 3.2800)
*|I (MX91/M0#d MX91/M0 d X 0 8.5605 3.2800)
*|I (MX70/M0#g MX70/M0 g X 0 9.3450 3.2800)
*|I (MX67/M0#g MX67/M0 g X 0 10.7250 3.2400)
*|I (MX66/M0#d MX66/M0 d X 0 8.8395 3.2800)
*|S (8 7.5350 3.2800)
*|S (8#22 7.5950 2.4745)
*|S (8#23 7.5950 2.3100)
*|S (8#24 7.5950 2.1450)
*|S (8#25 9.4050 2.4745)
*|S (8#26 9.4050 2.3100)
*|S (8#27 9.4050 2.1450)
*|S (8#28 10.7850 2.2095)
*|S (8#29 10.7850 2.0450)
*|S (8#30 10.7850 1.8800)
*|S (8#31 8.6100 0.8500)
*|S (8#33 8.6100 0.8000)
*|S (8#35 8.7000 3.2800)
*|S (8#36 8.7000 3.1750)
*|S (8#37 10.7850 2.0450)
*|S (8#38 9.4050 2.3100)
*|S (8#39 8.7000 2.3100)
*|S (8#40 7.5950 2.3100)
*|S (8#41 8.7000 3.1750)
*|S (8#42 8.7000 2.3100)
*|S (8#43 8.6550 0.9945)
*|S (8#44 8.6100 0.8500)
CQ1 MX67/M0#g VSS 1.47449e-18
CQ2 MX70/M0#g VSS 1.17292e-18
CQ3 MX91/M0#d VSS 6.80485e-21
CQ4 MX77/M0#g VSS 2.2538e-17
CQ5 MX80/M0#g VSS 1.43263e-17
CQ6 MX89/M0#d VSS 7.0016e-18
CQ7 MX92/M0#g VSS 1.86409e-17
CQ8 8#44 VSS 2.38766e-17
CQ9 8#42 VSS 1.04353e-18
CQ10 8#41 VSS 9.39562e-18
CQ11 8#40 VSS 3.60946e-18
CQ12 8#38 VSS 9.69668e-18
CQ13 8#37 VSS 1.55052e-17
CQ14 8#39 VSS 1.8489e-18
CQ15 8#36 VSS 1.5719e-18
CQ16 8 VSS 1.18853e-17
CQ17 8#44 51 6.90005e-18
CQ18 MX77/M0#g 51 1.31748e-18
CQ19 MX89/M0#d 51 1.91852e-17
CQ20 8#38 MX92/M0#d 3.65992e-18
CQ21 8#38 9#22 3.43826e-18
CQ22 8#37 9 3.40819e-18
CQ23 8#42 9#18 3.14089e-18
CQ24 MX89/M0#d 9#22 2.39861e-18
CQ25 MX92/M0#g 9#21 2.25199e-18
CQ26 8#44 9#18 1.99421e-18
CQ27 MX70/M0#g 9#19 1.52595e-18
CQ28 MX92/M0#g 9#22 1.52466e-18
CQ29 8#41 MX70/M0#d 1.41083e-18
CQ30 8#36 9#19 1.31075e-18
CQ31 8#44 9#21 1.00506e-17
CQ32 8#42 9#19 1.43995e-17
CQ33 8#41 9#19 2.29279e-17
CQ34 MX70/M0#g MX70/M0#d 7.83699e-18
CQ35 8#38 9#20 4.82338e-17
CQ36 MX92/M0#g MX92/M0#d 7.58829e-18
CQ37 8#38 9#17 1.19413e-17
CQ38 8#44 9#20 1.44397e-17
CQ39 8#44 9#22 2.99804e-17
CQ40 8#42 9#20 2.85685e-17
CQ41 8#37 9#17 1.85614e-17
CQ42 MX89/M0#d MX92/M0#d 1.40884e-17
CQ43 8#38 9#18 2.34899e-17
CQ44 8#44 MX92/M0#d 6.43967e-18
CQ45 8#38 MX70/M0#d 5.52353e-18
CQ46 MX80/M0#g MX82/M0#s 7.3052e-18
CQ47 MX89/M0#d VSS#5 7.24683e-18
CQ48 8#44 VSS#5 7.03148e-18
CQ49 MX77/M0#g MX111/M0#s 6.21439e-18
CQ50 MX89/M0#d VSS#29 6.0842e-18
CQ51 MX80/M0#g VSS#29 4.8201e-18
CQ52 MX80/M0#g VSS#2 4.29097e-18
CQ53 MX77/M0#g VSS#29 4.10439e-18
CQ54 MX92/M0#g VSS#5 3.927e-18
CQ55 MX77/M0#g VSS#7 3.64084e-18
CQ56 8#44 MX111/M0#s 3.05532e-18
CQ57 8#37 VSS#29 2.72373e-18
CQ58 8#37 MX82/M0#s 7.59312e-18
CQ59 MX92/M0#g MX92/M0#s 7.54594e-18
CQ60 8#44 VSS#29 2.37848e-17
RgQ286 8 8#22 258.717957 $L=0.805 $W=0.15
RgQ287 8#22 8#23 38.857975 $L=0.1645 $W=0.27
RgQ288 8#23 8#24 29.410927 $L=0.1645 $W=0.27
RgQ289 8#24 MX77/M0#g 432.237946 $L=1.345 $W=0.15
RgQ290 MX70/M0#g 8#25 258.717957 $L=0.805 $W=0.15
RgQ291 8#25 8#26 38.857975 $L=0.1645 $W=0.27
RgQ292 8#26 8#27 29.410927 $L=0.1645 $W=0.27
RgQ293 8#27 MX92/M0#g 432.237946 $L=1.345 $W=0.15
RgQ294 MX67/M0#g 8#28 331.017975 $L=1.03 $W=0.15
RgQ295 8#28 8#29 38.857975 $L=0.1645 $W=0.27
RgQ296 8#29 8#30 29.410927 $L=0.1645 $W=0.27
RgQ297 8#30 MX80/M0#g 347.084625 $L=1.08 $W=0.15
RfQ298 8#31 8#33 3.764706 $L=0.05 $W=0.17
RfQ299 8#35 8#36 7.905882 $L=0.105 $W=0.17
RfQ300 8#37 8#38 112.562279 $L=1.645 $W=0.17
RfQ301 8#38 8#39 53.082352 $L=0.705 $W=0.17
RfQ302 8#39 8#40 83.199997 $L=1.105 $W=0.17
ReQ303 8#41 8#42 0.470109 $L=0.865 $W=0.23
ReQ304 8#42 8#43 0.714772 $L=1.315 $W=0.23
ReQ305 8#43 8#44 0.065684 $L=0.1445 $W=0.32
RhQ306 MX89/M0#d 8#33 15.000000 $A=0.0289
Rh_2_Q307 MX91/M0#d 8#35 15.000000 $A=0.0289
RjQ308 8#36 8#41 152.000000 $A=0.0289
RjQ309 8#39 8#42 152.000000 $A=0.0289
RjQ310 8#31 8#44 152.000000 $A=0.0289
RiQ311 8#29 8#37 15.000000 $A=0.0289
RiQ312 8#26 8#38 15.000000 $A=0.0289
RiQ313 8#23 8#40 15.000000 $A=0.0289
RmwQ314 MX104/M0#g 8 0.001000 $W=1000000
RmwQ315 MX66/M0#d MX91/M0#d 0.001000 $W=1000000
*
*|NET 6 1.4086e-15
*|I (MX109/M0#g MX109/M0 g X 0 4.4350 0.8000)
*|I (MX102/M0#d MX102/M0 d X 0 6.5995 0.8000)
*|I (MX93/M0#d MX93/M0 d X 0 6.3205 0.8000)
*|I (MX107/M0#d MX107/M0 d X 0 6.3205 3.2800)
*|I (MX87/M0#g MX87/M0 g X 0 4.4350 3.2800)
*|I (MX84/M0#s MX84/M0 s X 0 6.5995 3.2800)
*|S (6 4.4350 3.2800)
*|S (6#8 4.4350 2.3100)
*|S (6#9 4.4350 2.1450)
*|S (6#11 6.4600 3.2800)
*|S (6#12 6.4600 3.1750)
*|S (6#13 6.4600 0.8500)
*|S (6#15 6.4600 0.8000)
*|S (6#16 6.4600 2.3100)
*|S (6#17 4.4350 2.3100)
*|S (6#18 6.4600 3.1750)
*|S (6#19 6.4600 2.3100)
*|S (6#20 6.4600 0.8500)
CO1 MX102/M0#d VSS 4.00107e-18
CO2 MX109/M0#g VSS 3.71994e-17
CO3 6#20 VSS 9.96164e-18
CO4 6#19 VSS 4.41832e-18
CO5 6#18 VSS 5.65863e-18
CO6 6#17 VSS 5.07832e-18
CO7 6#16 VSS 5.82608e-18
CO8 6#12 VSS 1.41432e-18
CO9 6 VSS 5.46348e-18
CO10 6 56#6 1.35751e-18
CO11 6 56#3 6.79329e-18
CO12 6#17 56#9 3.1043e-18
CO13 6#17 56#8 3.59833e-18
CO14 MX102/M0#d 7#20 3.99586e-18
CO15 6#12 7#21 3.94969e-18
CO16 6#20 MX110/M0#d 3.52588e-18
CO17 6#20 7#20 6.84077e-17
CO18 6#19 7#21 1.83234e-17
CO19 6#19 7#19 9.90455e-17
CO20 MX102/M0#d MX110/M0#d 1.89122e-17
CO21 6#12 7#12 2.30725e-17
CO22 6#16 7#19 7.93033e-18
CO23 6#20 7#19 1.69562e-17
CO24 6#18 7#21 6.09466e-17
CO25 6#20 MX93/M0#s 6.39346e-18
CO26 MX102/M0#d VSS#8 6.01954e-18
CO27 MX102/M0#d VSS#30 5.3592e-18
CO28 MX109/M0#g VSS#30 4.8201e-18
CO29 6#20 VSS#8 4.60773e-18
CO30 6#20 VSS#30 2.07771e-17
CO31 MX102/M0#d MX93/M0#s 2.0838e-17
RgO251 6 6#8 292.852417 $L=0.97 $W=0.15
RgO252 6#8 6#9 34.134449 $L=0.1645 $W=0.27
RgO253 6#9 MX109/M0#g 432.237946 $L=1.345 $W=0.15
RfO254 6#11 6#12 7.905882 $L=0.105 $W=0.17
RfO255 6#13 6#15 3.764706 $L=0.05 $W=0.17
RfO256 6#16 6#17 152.470596 $L=2.025 $W=0.17
ReO257 6#18 6#19 0.470109 $L=0.865 $W=0.23
ReO258 6#19 6#20 0.793478 $L=1.46 $W=0.23
RhO259 MX102/M0#d 6#15 15.000000 $A=0.0289
Rh_2_O260 MX107/M0#d 6#11 15.000000 $A=0.0289
RjO261 6#12 6#18 152.000000 $A=0.0289
RjO262 6#16 6#19 152.000000 $A=0.0289
RjO263 6#13 6#20 152.000000 $A=0.0289
RiO264 6#8 6#17 15.000000 $A=0.0289
RmwO265 MX93/M0#d MX102/M0#d 0.001000 $W=1000000
RmwO266 MX87/M0#g 6 0.001000 $W=1000000
RmwO267 MX84/M0#s MX107/M0#d 0.001000 $W=1000000
*
*|NET 9 9.5666e-16
*|I (MX92/M0#d MX92/M0 d X 0 9.2695 0.8000)
*|I (MX82/M0#g MX82/M0 g X 0 10.2950 0.8000)
*|I (MX73/M0#g MX73/M0 g X 0 10.2950 3.2400)
*|I (MX70/M0#d MX70/M0 d X 0 9.4205 3.2800)
*|S (9 10.2950 3.2400)
*|S (9#8 10.2350 1.7945)
*|S (9#9 10.2350 1.6300)
*|S (9#10 10.2350 1.4650)
*|S (9#11 9.1300 0.8500)
*|S (9#13 9.1300 0.8000)
*|S (9#14 9.5650 3.1750)
*|S (9#16 9.5600 3.2800)
*|S (9#17 10.2350 1.6300)
*|S (9#18 9.5650 1.6300)
*|S (9#19 9.5650 3.1750)
*|S (9#20 9.5650 1.6300)
*|S (9#21 9.5650 0.8500)
*|S (9#22 9.1300 0.8500)
CR1 MX70/M0#d VSS 1.79126e-18
CR2 MX82/M0#g VSS 1.95705e-17
CR3 MX92/M0#d VSS 1.07749e-17
CR4 9#22 VSS 3.77928e-18
CR5 9#21 VSS 7.52314e-18
CR6 9#20 VSS 8.52548e-18
CR7 9#19 VSS 5.464e-18
CR8 9#17 VSS 1.58309e-17
CR9 9#18 VSS 1.85536e-17
CR10 9 VSS 3.40484e-19
CR11 9#17 VSS#29 4.54758e-18
CR12 MX82/M0#g VSS#29 3.81798e-18
CR13 9#18 VSS#29 3.36056e-18
CR14 MX82/M0#g VSS#2 5.74683e-18
CR15 9#22 VSS#5 5.21831e-18
CR16 MX92/M0#d VSS#5 6.01954e-18
CR17 9#21 MX92/M0#s 2.61497e-17
CR18 9#18 MX92/M0#s 5.82742e-18
CR19 MX82/M0#g MX82/M0#s 6.57799e-18
CR20 MX92/M0#d MX92/M0#s 2.03743e-17
CR21 9#21 VSS#29 1.87045e-17
CR22 MX92/M0#d VSS#29 6.04835e-18
CR23 9#22 VSS#29 1.57694e-17
RgR316 9 9#8 464.371277 $L=1.445 $W=0.15
RgR317 9#8 9#9 38.857975 $L=0.1645 $W=0.27
RgR318 9#9 9#10 29.410927 $L=0.1645 $W=0.27
RgR319 9#10 MX82/M0#g 213.731293 $L=0.665 $W=0.15
RfR320 9#11 9#13 3.764706 $L=0.05 $W=0.17
RfR321 9#14 9#16 7.680000 $L=0.105 $W=0.175
RfR322 9#17 9#18 50.447060 $L=0.67 $W=0.17
ReR323 9#19 9#20 0.839674 $L=1.545 $W=0.23
ReR324 9#20 9#21 0.413670 $L=0.78 $W=0.23
ReR325 9#21 9#22 0.271246 $L=0.435 $W=0.17
RhR326 MX92/M0#d 9#13 15.000000 $A=0.0289
Rh_2_R327 MX70/M0#d 9#16 15.000000 $A=0.0289
RjR328 9#14 9#19 152.000000 $A=0.0289
RjR329 9#18 9#20 152.000000 $A=0.0289
RjR330 9#11 9#22 152.000000 $A=0.0289
RiR331 9#9 9#17 15.000000 $A=0.0289
RmwR332 MX73/M0#g 9 0.001000 $W=1000000
*
*|NET SI 4.7609e-16
*|P (SI X 0 2.3150 2.3750)
*|I (MX76/M0#g MX76/M0 g X 0 2.1950 0.8000)
*|I (MX86/M0#g MX86/M0 g X 0 2.1950 3.2800)
*|S (SI#8 2.1950 1.9700)
*|S (SI#9 2.1950 1.8050)
*|S (SI#10 2.3000 1.9700)
*|S (SI#11 2.1950 1.9700)
*|S (SI#12 2.3000 1.9700)
CG1 MX86/M0#g VSS 9.72877e-19
CG2 MX76/M0#g VSS 1.1562e-17
CG3 SI#12 VSS 1.62479e-18
CG4 SI#11 VSS 2.68941e-17
CG5 SI VSS 4.07585e-18
CG6 SI 41 3.04709e-18
CG7 SI#11 41 4.0978e-18
CG8 MX86/M0#g 41 7.72091e-18
CG9 SI#11 39 7.38691e-18
CG10 MX76/M0#g 39 6.21439e-18
CG11 MX86/M0#g 3#32 1.43725e-18
CG12 SI#12 3#41 3.8704e-17
CG13 SI#11 3#39 1.20735e-17
CG14 SI 3#41 2.65244e-17
CG15 SI 3#40 3.82809e-17
CG16 SI#11 3#41 3.13509e-18
CG17 SI#12 3#39 3.68278e-18
CG18 MX86/M0#g 2#3 1.43725e-18
CG19 MX76/M0#g MX101/M0#d 1.31748e-18
CG20 MX86/M0#g 2#14 4.71108e-18
CG21 SI#11 2#15 4.12735e-18
CG22 SI#12 2#14 1.05916e-17
CG23 SI#12 2#15 1.43723e-17
CG24 SI 2#14 5.69855e-17
CG25 SI#11 2#14 5.84629e-18
CG26 SI#11 1#20 9.54444e-18
CG27 SI 1#20 1.25431e-17
CG28 MX76/M0#g VSS#30 2.68767e-18
CG29 MX76/M0#g VSS#12 3.90205e-18
CG30 MX76/M0#g MX81/M0#s 6.24202e-18
CG31 SI#11 VSS#30 4.59285e-18
CG32 SI VDD#24 1.32958e-18
CG33 SI MX86/M0#s 1.39934e-17
CG34 SI VDD 1.5998e-17
CG35 MX86/M0#g VDD 1.4134e-17
CG36 MX86/M0#g MX86/M0#s 7.72147e-18
CG37 MX86/M0#g VDD#24 4.31255e-18
CG38 SI#12 VDD 2.53007e-18
RgG57 MX86/M0#g SI#8 402.105774 $L=1.31 $W=0.15
RgG58 SI#8 SI#9 34.134449 $L=0.1645 $W=0.27
RgG59 SI#9 MX76/M0#g 322.984650 $L=1.005 $W=0.15
RfG60 SI#10 SI#11 7.905882 $L=0.105 $W=0.17
ReG61 SI SI#12 0.194712 $L=0.405 $W=0.26
RjG62 SI#10 SI#12 152.000000 $A=0.0289
RiG63 SI#8 SI#11 15.000000 $A=0.0289
*
*|NET SE 7.48272e-16
*|P (SE X 0 0.9350 1.6500)
*|I (MX101/M0#g MX101/M0 g X 0 1.7650 0.8000)
*|I (MX78/M0#g MX78/M0 g X 0 0.4750 0.8000)
*|I (MX83/M0#g MX83/M0 g X 0 1.3350 3.2800)
*|I (MX71/M0#g MX71/M0 g X 0 0.4750 3.2800)
*|S (SE#15 0.4150 2.1345)
*|S (SE#16 0.4150 1.9700)
*|S (SE#17 0.4150 1.8050)
*|S (SE#18 1.7650 1.9700)
*|S (SE#19 1.4700 1.9700)
*|S (SE#20 1.4700 1.9700)
*|S (SE#21 1.2450 1.9050)
*|S (SE#22 0.9200 1.8400)
*|S (SE#23 0.6595 1.9050)
*|S (SE#24 0.4150 1.9700)
*|S (SE#25 0.9200 1.8400)
CF1 MX71/M0#g VSS 5.97319e-19
CF2 MX83/M0#g VSS 2.62319e-18
CF3 MX78/M0#g VSS 1.56399e-17
CF4 MX101/M0#g VSS 2.41607e-17
CF5 SE#24 VSS 2.23082e-17
CF6 SE#21 VSS 1.93299e-17
CF7 SE#22 VSS 8.48166e-18
CF8 SE VSS 7.95671e-18
CF9 MX71/M0#g 37 2.41443e-18
CF10 SE 35 1.91574e-17
CF11 MX78/M0#g 35 1.99359e-18
CF12 MX83/M0#g 37 7.72091e-18
CF13 MX101/M0#g 35 1.28937e-18
CF14 SE MX101/M0#d 2.29139e-18
CF15 MX83/M0#g 2#14 2.0274e-18
CF16 SE 2#15 7.66752e-17
CF17 SE#21 2#15 1.68386e-17
CF18 MX101/M0#g MX101/M0#d 6.2356e-18
CF19 MX83/M0#g 2#3 6.80947e-18
CF20 SE#21 2#14 1.10843e-17
CF21 SE#21 MX85/M0#g 3.41559e-18
CF22 MX101/M0#g 1#20 2.28162e-18
CF23 MX78/M0#g 1#25 1.93611e-18
CF24 MX71/M0#g 1#22 1.91391e-18
CF25 SE#22 1#19 1.06551e-18
CF26 SE#22 1#20 1.00819e-18
CF27 SE 1#18 2.27864e-17
CF28 SE#24 1#23 1.5057e-17
CF29 MX83/M0#g 1#20 9.27672e-18
CF30 SE#21 1#20 1.49542e-17
CF31 SE#22 1#18 1.02594e-17
CF32 MX78/M0#g 1#19 7.10033e-18
CF33 SE 1#25 2.04311e-17
CF34 SE#24 1#19 1.9276e-17
CF35 SE 1#24 5.12569e-17
CF36 SE#21 1#18 1.92173e-17
CF37 SE 1#23 4.37706e-18
CF38 SE#24 1#24 1.8682e-17
CF39 SE MX78/M0#d 3.80362e-18
CF40 MX78/M0#g MX78/M0#d 1.05729e-17
CF41 SE 1#19 1.03515e-17
CF42 MX71/M0#g 1#14 1.03868e-17
CF43 MX71/M0#g 1#21 6.92662e-18
CF44 SE#24 1#21 1.59421e-17
CF45 SE VSS#13 3.66027e-18
CF46 MX78/M0#g VSS#13 3.64084e-18
CF47 SE#24 VSS#30 2.15842e-18
CF48 SE#21 VSS#30 2.11867e-18
CF49 MX78/M0#g MX88/M0#s 7.3052e-18
CF50 SE VSS#30 2.20091e-17
CF51 MX101/M0#g VSS#12 5.74683e-18
CF52 SE MX88/M0#s 1.06263e-17
CF53 MX78/M0#g VSS#30 4.8201e-18
CF54 MX101/M0#g VSS#30 4.8201e-18
CF55 MX83/M0#g VDD#27 5.04997e-18
CF56 MX83/M0#g VDD#32 5.21861e-18
CF57 MX71/M0#g VDD#32 5.21861e-18
CF58 MX83/M0#g VDD 1.60341e-17
CF59 MX71/M0#g MX74/M0#s 9.07616e-18
CF60 MX71/M0#g VDD 1.39295e-17
CF61 MX71/M0#g VDD#27 3.77064e-18
CF62 MX101/M0#g SI#11 2.96733e-18
CF63 SE#21 SI#12 3.20763e-18
CF64 SE#21 SI#11 1.20863e-17
RgF42 MX71/M0#g SE#15 367.971313 $L=1.145 $W=0.15
RgF43 SE#15 SE#16 38.857975 $L=0.1645 $W=0.27
RgF44 SE#16 SE#17 29.410927 $L=0.1645 $W=0.27
RgF45 SE#17 MX78/M0#g 322.984650 $L=1.005 $W=0.15
RgF46 MX101/M0#g SE#18 347.526733 $L=1.17 $W=0.15
RgF47 SE#18 SE#19 54.220818 $L=0.295 $W=0.27
RgF48 SE#19 MX83/M0#g 420.946655 $L=1.31 $W=0.15
RfF49 SE#20 SE#21 9.589334 $L=0.2245 $W=0.3
RfF50 SE#21 SE#22 24.481255 $L=0.325 $W=0.17
RfF51 SE#22 SE#23 19.587137 $L=0.26 $W=0.17
RfF52 SE#23 SE#24 11.793457 $L=0.2445 $W=0.3
ReF53 SE SE#25 0.091346 $L=0.19 $W=0.26
RjF54 SE#22 SE#25 152.000000 $A=0.0289
RiF55 SE#19 SE#20 15.000000 $A=0.0289
RiF56 SE#16 SE#24 15.000000 $A=0.0289
*
*|NET CK 5.08901e-16
*|P (CK X 0 2.3150 0.9950)
*|I (MX81/M0#g MX81/M0 g X 0 2.6250 0.8000)
*|I (MX68/M0#g MX68/M0 g X 0 2.6250 3.2800)
*|S (CK#8 2.6250 1.2900)
*|S (CK#9 2.6250 1.1250)
*|S (CK#10 2.6250 1.2900)
*|S (CK#11 2.3000 1.2900)
*|S (CK#12 2.3000 1.2900)
CA1 MX68/M0#g VSS 3.05013e-18
CA2 MX81/M0#g VSS 1.81099e-17
CA3 CK#12 VSS 8.85797e-18
CA4 CK#10 VSS 1.43276e-17
CA5 CK#11 VSS 1.33683e-17
CA6 CK VSS 2.38117e-17
CA7 MX81/M0#g 39 1.10002e-18
CA8 CK 39 1.2086e-17
CA9 MX81/M0#g 3#39 1.8002e-18
CA10 MX68/M0#g 3#40 1.5663e-18
CA11 CK#12 3#42 2.34732e-17
CA12 CK 3#42 2.76175e-17
CA13 CK#10 3#42 1.75539e-17
CA14 MX68/M0#g 3#39 2.85079e-18
CA15 MX68/M0#g 3#32 7.80226e-18
CA16 CK#12 3#41 2.49325e-17
CA17 CK#10 3#39 5.92998e-18
CA18 CK MX81/M0#d 4.9697e-18
CA19 MX81/M0#g MX81/M0#d 7.13214e-18
CA20 CK#10 MX81/M0#d 1.20501e-17
CA21 MX68/M0#g 2#9 1.92164e-18
CA22 MX81/M0#g MX103/M0#d 1.76427e-18
CA23 CK MX103/M0#d 1.11123e-18
CA24 MX68/M0#g 2#13 5.75254e-18
CA25 CK#10 2#16 3.08431e-18
CA26 CK MX101/M0#d 3.20202e-18
CA27 CK#11 2#15 3.53129e-18
CA28 CK 2#15 2.04821e-17
CA29 CK#12 2#15 3.25356e-17
CA30 CK VSS#13 1.77661e-18
CA31 CK#11 VSS#30 1.64775e-18
CA32 CK MX94/M0#s 1.4978e-18
CA33 CK#10 VSS#12 1.19497e-18
CA34 CK#11 MX81/M0#s 9.98634e-18
CA35 CK VSS#12 1.13853e-17
CA36 CK VSS#30 3.55424e-17
CA37 CK MX81/M0#s 2.82828e-17
CA38 MX81/M0#g VSS#30 4.8201e-18
CA39 CK MX88/M0#s 3.66248e-18
CA40 CK#10 MX81/M0#s 4.19191e-18
CA41 MX81/M0#g VSS#12 3.64084e-18
CA42 CK#10 VSS#30 2.81561e-18
CA43 MX81/M0#g MX81/M0#s 6.57799e-18
CA44 MX68/M0#g VDD 1.21429e-17
CA45 MX68/M0#g MX86/M0#s 8.17266e-18
CA46 MX68/M0#g VDD#24 4.31255e-18
CA47 CK#11 SI#12 1.43944e-18
CA48 CK#11 MX76/M0#g 5.6221e-18
CA49 CK#12 SI#11 5.66752e-18
CA50 CK#10 SI#11 2.6753e-18
CA51 CK#11 SI#11 8.22212e-18
CA52 CK#12 SI#12 3.78481e-17
RgA1 MX68/M0#g CK#8 620.612427 $L=1.99 $W=0.15
RgA2 CK#8 CK#9 34.134449 $L=0.1645 $W=0.27
RgA3 CK#9 MX81/M0#g 104.477959 $L=0.325 $W=0.15
RfA4 CK#10 CK#11 24.470589 $L=0.325 $W=0.17
ReA5 CK CK#12 0.141827 $L=0.295 $W=0.26
RjA6 CK#11 CK#12 152.000000 $A=0.0289
RiA7 CK#8 CK#10 15.000000 $A=0.0289
*
*|NET 7 1.30672e-15
*|I (MX110/M0#d MX110/M0 d X 0 7.0295 0.8000)
*|I (MX102/M0#s MX102/M0 s X 0 6.7505 0.8000)
*|I (MX89/M0#g MX89/M0 g X 0 8.3950 0.8000)
*|I (MX96/M0#d MX96/M0 d X 0 7.0295 3.2800)
*|I (MX84/M0#d MX84/M0 d X 0 6.7505 3.2800)
*|I (MX66/M0#g MX66/M0 g X 0 8.9150 3.2800)
*|S (7 8.9150 3.2800)
*|S (7#8 8.9150 1.9700)
*|S (7#9 8.9150 1.8050)
*|S (7#11 6.8900 3.2800)
*|S (7#12 6.8900 3.1750)
*|S (7#13 6.8900 0.8500)
*|S (7#15 6.8900 0.8000)
*|S (7#16 8.9150 1.9700)
*|S (7#17 7.4000 1.9700)
*|S (7#18 7.4000 1.9700)
*|S (7#19 6.8900 1.9700)
*|S (7#20 6.8900 0.8500)
*|S (7#21 6.8900 3.1750)
CP1 MX89/M0#g VSS 2.4298e-17
CP2 MX110/M0#d VSS 3.49644e-18
CP3 7#21 VSS 8.09496e-18
CP4 7#20 VSS 9.10966e-18
CP5 7#19 VSS 5.79962e-18
CP6 7#18 VSS 9.1932e-18
CP7 7#16 VSS 3.07674e-17
CP8 7#12 VSS 9.309e-18
CP9 7#17 VSS 1.7899e-17
CP10 7 VSS 4.83289e-18
CP11 MX89/M0#g 51 6.57799e-18
CP12 7#17 51 5.52693e-19
CP13 MX110/M0#d 47 1.93352e-17
CP14 7#21 49 6.74933e-18
CP15 7#12 49 2.64474e-17
CP16 7#16 51 3.73757e-18
CP17 7#20 51 1.19766e-18
CP18 7#20 47 5.39946e-18
CP19 7#18 49 3.73524e-18
CP20 7#18 47 2.60991e-18
CP21 7#16 MX92/M0#d 3.56375e-18
CP22 7#16 9#22 3.05106e-18
CP23 7#16 9#20 7.8034e-18
CP24 7 8#39 6.47355e-18
CP25 7#18 8#40 5.28081e-18
CP26 7#19 8#40 4.85918e-18
CP27 7#16 MX89/M0#d 3.49097e-18
CP28 7#18 MX77/M0#g 3.46727e-18
CP29 7#16 8#44 1.94633e-18
CP30 MX89/M0#g 8#44 1.82806e-18
CP31 7 8#41 1.58467e-18
CP32 7#12 8 1.53964e-18
CP33 MX110/M0#d MX77/M0#g 1.31748e-18
CP34 7#16 8#39 7.43896e-17
CP35 7#17 8#40 6.16644e-17
CP36 MX89/M0#g MX89/M0#d 7.15086e-18
CP37 7#16 8#38 7.25443e-18
CP38 7 8#36 6.79664e-18
CP39 7#16 8#42 4.47127e-17
CP40 MX110/M0#d VSS#30 5.34191e-18
CP41 7#16 VSS#29 5.08628e-18
CP42 MX89/M0#g VSS#29 4.8201e-18
CP43 MX89/M0#g VSS#7 4.02278e-18
CP44 MX110/M0#d VSS#8 3.62342e-18
CP45 MX110/M0#d VSS#7 3.60004e-18
CP46 7#18 VSS#7 3.35417e-18
CP47 7#20 MX111/M0#s 2.34005e-18
CP48 7#20 VSS#8 2.30386e-18
CP49 7#20 VSS#7 2.29229e-18
CP50 7#20 VSS#30 2.07771e-17
RgP268 7 7#8 402.105774 $L=1.31 $W=0.15
RgP269 7#8 7#9 34.134449 $L=0.1645 $W=0.27
RgP270 7#9 MX89/M0#g 447.539429 $L=1.525 $W=0.15
RfP271 7#11 7#12 7.905882 $L=0.105 $W=0.17
RfP272 7#13 7#15 3.764706 $L=0.05 $W=0.17
RfP273 7#16 7#17 114.070587 $L=1.515 $W=0.17
ReP274 7#18 7#19 0.226037 $L=0.51 $W=0.23
ReP275 7#19 7#20 0.603911 $L=1.12 $W=0.23
ReP276 7#19 7#21 0.650107 $L=1.205 $W=0.23
RhP277 MX110/M0#d 7#15 15.000000 $A=0.0289
Rh_2_P278 MX96/M0#d 7#11 15.000000 $A=0.0289
RjP279 7#17 7#18 152.000000 $A=0.0289
RjP280 7#13 7#20 152.000000 $A=0.0289
RjP281 7#12 7#21 152.000000 $A=0.0289
RiP282 7#8 7#16 15.000000 $A=0.0289
RmwP283 MX102/M0#s MX110/M0#d 0.001000 $W=1000000
RmwP284 MX84/M0#d MX96/M0#d 0.001000 $W=1000000
RmwP285 MX66/M0#g 7 0.001000 $W=1000000
*
*|NET RN 1.21827e-15
*|P (RN X 0 5.0750 1.7650)
*|I (MX111/M0#g MX111/M0 g X 0 7.9650 0.8000)
*|I (MX94/M0#g MX94/M0 g X 0 4.8650 0.8000)
*|I (MX91/M0#g MX91/M0 g X 0 8.4850 3.2800)
*|I (MX69/M0#g MX69/M0 g X 0 4.8650 3.2800)
*|S (RN#15 4.8650 1.6300)
*|S (RN#16 4.8650 1.4650)
*|S (RN#17 7.9650 1.6300)
*|S (RN#18 7.9650 1.4650)
*|S (RN#19 7.9650 1.6300)
*|S (RN#20 5.0600 1.6300)
*|S (RN#21 4.8650 1.6300)
*|S (RN#22 5.0600 1.6300)
CE1 MX69/M0#g VSS 6.13695e-18
CE2 MX91/M0#g VSS 6.44892e-18
CE3 MX94/M0#g VSS 2.66304e-17
CE4 MX111/M0#g VSS 1.82077e-17
CE5 RN#22 VSS 7.15205e-18
CE6 RN#21 VSS 1.21339e-17
CE7 RN#19 VSS 4.03052e-17
CE8 RN#20 VSS 2.97473e-17
CE9 RN VSS 1.87169e-18
CE10 RN 56#6 2.12911e-18
CE11 MX69/M0#g 56#3 1.43587e-18
CE12 MX69/M0#g 56#8 1.32695e-18
CE13 RN#19 51 5.22769e-18
CE14 MX111/M0#g 51 6.21439e-18
CE15 MX69/M0#g 56#6 7.81475e-18
CE16 RN 56#8 1.83642e-17
CE17 RN#19 8#42 3.93136e-18
CE18 RN#19 8#44 2.4961e-18
CE19 MX91/M0#g 8#36 7.11199e-18
CE20 MX91/M0#g 8#39 6.20559e-18
CE21 RN#19 7#17 7.47828e-17
CE22 RN#19 7#19 2.58323e-17
CE23 RN#19 7#18 9.05162e-18
CE24 RN#20 6#20 5.24009e-18
CE25 RN#19 6#19 4.36629e-18
CE26 RN#20 6#19 1.02437e-17
CE27 RN 6#17 2.52753e-17
CE28 MX111/M0#g 5#33 5.7379e-18
CE29 MX69/M0#g 5#29 5.4889e-18
CE30 MX94/M0#g 5#35 4.10824e-18
CE31 MX94/M0#g 5#36 2.70375e-18
CE32 MX111/M0#g 5#42 2.04473e-18
CE33 MX69/M0#g 5#25 2.03753e-18
CE34 RN#19 5#32 1.94822e-18
CE35 RN#21 5#36 1.50015e-17
CE36 RN#19 5#33 6.63344e-17
CE37 RN#19 5#42 2.82205e-17
CE38 RN#22 5#39 4.05348e-17
CE39 RN 5#29 9.02706e-18
CE40 RN#20 5#34 2.9727e-17
CE41 RN#19 5#34 5.83816e-17
CE42 RN#20 5#35 9.18975e-17
CE43 RN#20 5#39 2.33245e-17
CE44 RN 5#39 2.31343e-17
CE45 RN 5#38 3.59125e-17
CE46 RN#22 5#35 2.56388e-17
CE47 RN#21 5#35 1.2753e-17
CE48 RN#21 4#20 4.52607e-18
CE49 RN#20 4#18 2.56362e-18
CE50 RN#22 4#20 9.85623e-18
CE51 RN 4#20 6.65144e-18
CE52 RN 4#19 7.52349e-18
CE53 RN#20 3#37 1.08353e-16
CE54 RN#21 3#38 1.50015e-17
CE55 RN#20 3#36 1.18779e-17
CE56 RN 3#37 2.66513e-17
CE57 RN#21 3#37 1.2753e-17