*
*|DSPF 1.5
*
*|DATE "Fri Feb 28 12:15:21 2025"
*|VENDOR "Cadence Design Systems"
*|PROGRAM "Cadence Quantus Extraction"
*|VERSION "22.1.0-p089 Linux 64 bit - (Thu Jan 19 11:47:08 PST 2023)"
*|DESIGN "SDFFSX1_LP"
*|DIVIDER /
*|DELIMITER #
*|DeviceFingerDelim "@"
*|BUSBIT []
*|GLOBAL_TEMPERATURE 25
*|OPERATING_TEMPERATURE 25
** QRC_TECH_DIR /vols/wfo_devel/projects/reference_SKY130/tech/sky130_release_0.0.4/quantus/extraction/typical 
** HIERARCHICAL_SPLIT_PINS_DELIMITER '%'
** caps2d version: 10
*
.SUBCKT  SDFFSX1_LP CK D Q QN SE SI SN VDD VSS
*
*Net Section
*
*|GROUND_NET VSS
*
*|NET VSS 3.56665e-15
*|P (VSS X 0 4.8250 0.0050)
*|I (MX111/M0#d MX111/M0 d X 0 8.9905 0.8000)
*|I (MX91/M0#s MX91/M0 s X 0 8.0405 0.8000)
*|I (MX90/M0#s MX90/M0 s X 0 5.7395 0.8000)
*|I (MX81/M0#s MX81/M0 s X 0 10.6495 0.8000)
*|I (MX80/M0#s MX80/M0 s X 0 9.2695 0.8000)
*|I (MX79/M0#s MX79/M0 s X 0 4.7895 0.8000)
*|I (MX78/M0#s MX78/M0 s X 0 2.5495 0.8000)
*|I (MX77/M0#s MX77/M0 s X 0 10.3705 0.8000)
*|I (MX76/M0#s MX76/M0 s X 0 0.5505 0.8000)
*|I (MX75/M0#s MX75/M0 s X 0 4.5105 0.8000)
*|I (MX74/M0#s MX74/M0 s X 0 2.2705 0.8000)
*|I (MX65/M0#s MX65/M0 s X 0 0.8295 0.8000)
*|S (VSS#1 11.4995 0.0000)
*|S (VSS#2 10.5100 0.0000)
*|S (VSS#3 9.2000 0.0000)
*|S (VSS#4 9.2000 0.0000)
*|S (VSS#7 10.5100 0.8000)
*|S (VSS#8 8.1800 0.0000)
*|S (VSS#9 5.6000 0.0000)
*|S (VSS#10 4.6500 0.0000)
*|S (VSS#11 3.6800 0.0000)
*|S (VSS#13 2.4100 0.0000)
*|S (VSS#14 0.6900 0.0000)
*|S (VSS#15 0.0000 0.0000)
*|S (VSS#17 9.1300 0.8000)
*|S (VSS#19 8.1800 0.8000)
*|S (VSS#21 5.6000 0.8000)
*|S (VSS#23 4.6500 0.8000)
*|S (VSS#25 2.4100 0.8000)
*|S (VSS#27 0.6900 0.8000)
*|S (VSS#28 9.2000 0.0000)
*|S (VSS#29 3.6800 0.0000)
RfI103 VSS#1 VSS#2 50.387211 $L=0.9895 $W=0.25
RfI104 VSS#2 VSS#3 66.796814 $L=1.31 $W=0.25
RfI105 VSS#2 VSS#7 53.627445 $L=0.8 $W=0.17
RfI106 VSS#3 VSS#8 51.948811 $L=1.02 $W=0.25
RfI107 VSS#8 VSS#9 131.545624 $L=2.58 $W=0.25
RfI108 VSS#9 VSS#10 48.089619 $L=0.95 $W=0.25
RfI109 VSS#10 VSS#11 49.388809 $L=0.97 $W=0.25
RfI110 VSS#11 VSS#13 64.748810 $L=1.27 $W=0.25
RfI111 VSS#13 VSS#14 87.513618 $L=1.72 $W=0.25
RfI112 VSS#14 VSS#15 35.052811 $L=0.69 $W=0.25
RfI113 VSS#3 VSS#17 57.223530 $L=0.8 $W=0.17
RfI114 VSS#8 VSS#19 53.627445 $L=0.8 $W=0.17
RfI115 VSS#9 VSS#21 53.627445 $L=0.8 $W=0.17
RfI116 VSS#10 VSS#23 53.627445 $L=0.8 $W=0.17
RfI117 VSS#13 VSS#25 53.627445 $L=0.8 $W=0.17
RfI118 VSS#14 VSS#27 53.627445 $L=0.8 $W=0.17
ReI119 VSS#28 VSS 1.367188 $L=4.375 $W=0.4
ReI120 VSS VSS#29 0.357812 $L=1.145 $W=0.4
RhI121 MX81/M0#s VSS#7 15.000000 $A=0.0289
RhI122 MX111/M0#d VSS#17 15.000000 $A=0.0289
RhI123 MX91/M0#s VSS#19 15.000000 $A=0.0289
RhI124 MX90/M0#s VSS#21 15.000000 $A=0.0289
RhI125 MX79/M0#s VSS#23 15.000000 $A=0.0289
RhI126 MX78/M0#s VSS#25 15.000000 $A=0.0289
RhI127 MX76/M0#s VSS#27 15.000000 $A=0.0289
Rh_3_I128 VSS#4 VSS#3 1.666667 $A=0.2601
Rh_3_I129 VSS#4 VSS#11 1.000000 $A=0.4335
RjI130 VSS#3 VSS#28 16.888889 $A=0.2601
RjI131 VSS#11 VSS#29 10.133333 $A=0.4335
RmwI132 MX80/M0#s MX111/M0#d 0.001000 $W=1000000
RmwI133 MX77/M0#s MX81/M0#s 0.001000 $W=1000000
RmwI134 MX75/M0#s MX79/M0#s 0.001000 $W=1000000
RmwI135 MX74/M0#s MX78/M0#s 0.001000 $W=1000000
RmwI136 MX65/M0#s MX76/M0#s 0.001000 $W=1000000
*
*|NET 1 1.16512e-15
*|I (MX92/M0#g MX92/M0 g X 0 1.3350 0.8000)
*|I (MX76/M0#d MX76/M0 d X 0 0.3995 0.8000)
*|I (MX86/M0#g MX86/M0 g X 0 1.7650 3.2800)
*|I (MX72/M0#d MX72/M0 d X 0 0.3995 3.2800)
*|S (1 1.7650 3.2800)
*|S (1#8 1.3350 1.1250)
*|S (1#9 1.3350 1.2900)
*|S (1#10 1.7650 2.8145)
*|S (1#11 1.7650 2.6500)
*|S (1#13 0.2600 3.2800)
*|S (1#14 0.2600 3.0900)
*|S (1#15 0.2600 0.8500)
*|S (1#17 0.2600 0.8000)
*|S (1#18 1.3350 1.2900)
*|S (1#19 0.2600 1.2900)
*|S (1#20 1.7650 2.6500)
*|S (1#21 0.2600 2.6500)
*|S (1#22 0.2600 3.0900)
*|S (1#23 0.2600 2.6500)
*|S (1#24 0.2600 1.2900)
*|S (1#25 0.2600 0.8500)
CJ1 MX72/M0#d VSS 2.48111e-18
CJ2 MX76/M0#d VSS 8.43288e-18
CJ3 MX92/M0#g VSS 2.1359e-17
CJ4 1#25 VSS 1.78919e-17
CJ5 1#24 VSS 3.4104e-17
CJ6 1#23 VSS 3.1676e-18
CJ7 1#22 VSS 9.90535e-19
CJ8 1#20 VSS 5.69935e-18
CJ9 1#18 VSS 2.1847e-17
CJ10 1#19 VSS 2.63105e-17
CJ11 1#21 VSS 3.14573e-18
CJ12 1#14 VSS 7.8258e-19
CJ13 1 VSS 2.0931e-18
CJ14 1#25 35 1.4384e-18
CJ15 MX92/M0#g 35 6.21439e-18
CJ16 1#20 37 2.3274e-17
CJ17 1#20 41 1.57337e-17
CJ18 1#22 37 1.39234e-18
CJ19 1#18 35 2.31262e-17
CJ20 1 41 7.71812e-18
CJ21 1 37 1.58879e-18
CJ22 1 2 4.59009e-18
CJ23 1 2#3 3.15253e-18
CJ24 1#23 2#14 2.8512e-18
CJ25 1 2#14 2.27932e-18
CJ26 1#18 MX92/M0#d 1.34272e-17
CJ27 1#20 2#14 4.68208e-17
CJ28 1#18 2#15 2.07612e-17
CJ29 1#20 2#3 2.15361e-17
CJ30 MX92/M0#g MX92/M0#d 6.2356e-18
CJ31 1#18 VSS#29 5.52342e-18
CJ32 MX76/M0#d VSS#29 5.34191e-18
CJ33 MX92/M0#g VSS#14 4.87612e-18
CJ34 MX92/M0#g VSS#29 4.8201e-18
CJ35 MX76/M0#d VSS#15 4.62862e-18
CJ36 1#18 VSS#14 2.92793e-18
CJ37 1#25 VSS#15 2.80165e-18
CJ38 1#25 VSS#14 1.7945e-18
CJ39 1 VSS#29 1.37737e-18
CJ40 1#19 VSS#29 5.91697e-18
CJ41 1#25 MX76/M0#s 6.49073e-18
CJ42 1#19 MX76/M0#s 2.18448e-17
CJ43 1#25 VSS#29 2.07771e-17
CJ44 MX76/M0#d MX76/M0#s 2.02978e-17
RgJ137 MX92/M0#g 1#8 104.477959 $L=0.325 $W=0.15
RgJ138 1#8 1#9 34.134449 $L=0.1645 $W=0.27
RgJ139 1 1#10 149.464630 $L=0.465 $W=0.15
RgJ140 1#10 1#11 34.134449 $L=0.1645 $W=0.27
RfJ141 1#13 1#14 14.305882 $L=0.19 $W=0.17
RfJ142 1#15 1#17 3.764706 $L=0.05 $W=0.17
RfJ143 1#18 1#19 80.941177 $L=1.075 $W=0.17
RfJ144 1#20 1#21 113.317642 $L=1.505 $W=0.17
ReJ145 1#22 1#23 0.239130 $L=0.44 $W=0.23
ReJ146 1#23 1#24 0.739130 $L=1.36 $W=0.23
ReJ147 1#24 1#25 0.239130 $L=0.44 $W=0.23
RhJ148 MX76/M0#d 1#17 15.000000 $A=0.0289
Rh_2_J149 MX72/M0#d 1#13 15.000000 $A=0.0289
RjJ150 1#14 1#22 152.000000 $A=0.0289
RjJ151 1#21 1#23 152.000000 $A=0.0289
RjJ152 1#19 1#24 152.000000 $A=0.0289
RjJ153 1#15 1#25 152.000000 $A=0.0289
RiJ154 1#9 1#18 15.000000 $A=0.0289
RiJ155 1#11 1#20 15.000000 $A=0.0289
RmwJ156 MX86/M0#g 1 0.001000 $W=1000000
*
*|NET 2 1.83168e-15
*|I (MX106/M0#d MX106/M0 d X 0 3.4995 0.8000)
*|I (MX92/M0#d MX92/M0 d X 0 1.4105 0.8000)
*|I (MX88/M0#d MX88/M0 d X 0 1.6895 0.8000)
*|I (MX95/M0#d MX95/M0 d X 0 1.4105 3.2800)
*|I (MX87/M0#s MX87/M0 s X 0 3.4995 3.2800)
*|I (MX86/M0#d MX86/M0 d X 0 1.6895 3.2800)
*|S (2 1.5500 3.2800)
*|S (2#2 1.5500 3.2800)
*|S (2#3 1.5500 3.0900)
*|S (2#4 1.5500 0.8500)
*|S (2#6 1.5500 0.8000)
*|S (2#8 3.3600 3.2800)
*|S (2#9 3.3600 3.0900)
*|S (2#10 3.3600 0.8500)
*|S (2#12 3.3600 0.8000)
*|S (2#13 3.3600 3.0900)
*|S (2#14 1.5500 3.0900)
*|S (2#15 1.5500 0.8500)
*|S (2#16 3.3600 0.8500)
CK1 MX87/M0#s VSS 2.99068e-18
CK2 MX92/M0#d VSS 2.80797e-18
CK3 MX106/M0#d VSS 5.68126e-18
CK4 2#16 VSS 1.89454e-17
CK5 2#15 VSS 2.10675e-17
CK6 2#14 VSS 6.46653e-18
CK7 2#13 VSS 1.50048e-17
CK8 2#3 VSS 3.77688e-18
CK9 2#9 VSS 5.42124e-18
CK10 2 VSS 1.85305e-18
CK11 2#15 39 6.08715e-18
CK12 MX92/M0#d 35 1.85242e-17
CK13 2#14 41 3.08938e-17
CK14 2#15 35 5.59583e-18
CK15 2#3 37 1.17361e-17
CK16 2 41 1.55681e-17
CK17 MX92/M0#d 39 1.80932e-17
CK18 2 37 1.57281e-17
CK19 2#14 37 1.02765e-17
CK20 2#3 41 1.17361e-17
CK21 MX87/M0#s 5 5.22705e-18
CK22 2#16 5#33 4.20074e-18
CK23 2#9 5 3.59e-18
CK24 2#9 5#27 1.35469e-17
CK25 2#13 5#27 1.56642e-17
CK26 2#13 MX96/M0#d 6.86406e-18
CK27 MX106/M0#d 4#19 3.91251e-18
CK28 2#16 MX106/M0#s 3.31626e-18
CK29 2#9 4#12 1.17256e-17
CK30 2#16 4#19 1.28428e-16
CK31 MX87/M0#s MX96/M0#d 1.57223e-17
CK32 MX106/M0#d MX106/M0#s 1.89122e-17
CK33 2#13 4#20 1.30678e-16
CK34 2#9 3#33 8.64641e-18
CK35 2#13 3#39 8.52501e-18
CK36 2#16 3#40 7.43186e-18
CK37 MX106/M0#d MX106/M0#g 7.13214e-18
CK38 2#14 3#41 5.04721e-18
CK39 2#15 3#42 3.72646e-18
CK40 2#16 MX78/M0#d 3.62335e-18
CK41 MX106/M0#d 3#43 3.62335e-18
CK42 2#9 3#41 2.78279e-18
CK43 2#13 3#33 2.69577e-18
CK44 MX106/M0#d 3#39 1.89527e-18
CK45 MX106/M0#d MX78/M0#d 1.27642e-17
CK46 2#13 3#42 4.11113e-17
CK47 2#16 3#42 4.21519e-17
CK48 2#13 3#40 1.37708e-17
CK49 MX87/M0#s MX67/M0#d 1.17215e-17
CK50 2#13 MX67/M0#d 1.66265e-17
CK51 2#16 3#39 9.98729e-18
CK52 2#16 3#43 4.71076e-17
CK53 2#13 3#41 9.36685e-17
CK54 MX106/M0#d VSS#4 7.24683e-18
CK55 MX106/M0#d VSS#29 5.66554e-18
CK56 MX92/M0#d VSS#29 5.5525e-18
CK57 2#16 VSS#4 5.37701e-18
CK58 MX92/M0#d VSS#14 3.62342e-18
CK59 MX92/M0#d VSS#13 3.60004e-18
CK60 2#16 VSS#29 2.07771e-17
CK61 2#15 VSS#29 2.07771e-17
RfK157 2#2 2#3 14.305882 $L=0.19 $W=0.17
RfK158 2#4 2#6 3.764706 $L=0.05 $W=0.17
RfK159 2#8 2#9 14.305882 $L=0.19 $W=0.17
RfK160 2#10 2#12 3.764706 $L=0.05 $W=0.17
ReK161 2#13 2#14 1.308160 $L=2.61 $W=0.23
ReK162 2#14 2#15 1.217391 $L=2.24 $W=0.23
ReK163 2#13 2#16 1.217391 $L=2.24 $W=0.23
RhK164 MX92/M0#d 2#6 15.000000 $A=0.0289
RhK165 MX106/M0#d 2#12 15.000000 $A=0.0289
Rh_2_K166 2 2#2 15.000000 $A=0.0289
Rh_2_K167 MX87/M0#s 2#8 15.000000 $A=0.0289
RjK168 2#9 2#13 152.000000 $A=0.0289
RjK169 2#3 2#14 152.000000 $A=0.0289
RjK170 2#4 2#15 152.000000 $A=0.0289
RjK171 2#10 2#16 152.000000 $A=0.0289
RmwK172 MX88/M0#d MX92/M0#d 0.001000 $W=1000000
RmwK173 MX95/M0#d 2 0.001000 $W=1000000
RmwK174 MX86/M0#d 2 0.001000 $W=1000000
*
*|NET 7 1.39749e-15
*|I (MX111/M0#g MX111/M0 g X 0 8.9150 0.8000)
*|I (MX105/M0#d MX105/M0 d X 0 6.7505 0.8000)
*|I (MX89/M0#d MX89/M0 d X 0 7.0295 0.8000)
*|I (MX110/M0#g MX110/M0 g X 0 8.9150 3.2800)
*|I (MX109/M0#d MX109/M0 d X 0 7.0295 3.2800)
*|I (MM1#d MM1 d X 0 6.7505 3.2800)
*|S (7 8.9150 3.2800)
*|S (7#8 8.8750 2.3100)
*|S (7#9 8.8750 2.1450)
*|S (7#11 6.8900 3.2800)
*|S (7#12 6.8900 3.0900)
*|S (7#13 6.8900 0.8500)
*|S (7#15 6.8900 0.8000)
*|S (7#16 8.8750 2.3100)
*|S (7#17 6.8900 2.3100)
*|S (7#18 6.8900 3.0900)
*|S (7#19 6.8900 2.3100)
*|S (7#20 6.8900 0.8500)
CP1 MX109/M0#d VSS 3.96541e-18
CP2 MX105/M0#d VSS 3.4369e-18
CP3 MX111/M0#g VSS 1.78169e-17
CP4 7#20 VSS 1.83461e-17
CP5 7#19 VSS 2.27731e-18
CP6 7#18 VSS 1.21623e-17
CP7 7#16 VSS 4.32562e-18
CP8 7#17 VSS 6.00073e-18
CP9 7#12 VSS 7.88353e-18
CP10 7 VSS 4.93191e-18
CP11 7#18 57 1.62806e-18
CP12 7 MX70/M0#d 1.50131e-18
CP13 7#17 57#7 1.14344e-18
CP14 7 57#6 8.42957e-19
CP15 7#16 57#6 7.93248e-18
CP16 MX109/M0#d 57 1.86906e-17
CP17 7#12 57#8 2.59179e-18
CP18 7#18 57#8 3.90452e-17
CP19 MX105/M0#d 49 1.93352e-17
CP20 7#18 57#3 3.34282e-18
CP21 7#16 57#7 1.10217e-17
CP22 7#17 57#8 5.62644e-18
CP23 7#12 57#3 1.16967e-17
CP24 7#20 49 6.82136e-18
CP25 7#16 9#18 2.84878e-18
CP26 7#16 9#19 5.61538e-18
CP27 7#16 8#30 6.70289e-18
CP28 7 MX110/M0#s 5.29259e-18
CP29 MX111/M0#g 8#36 5.10173e-18
CP30 7 8#30 3.59e-18
CP31 7#19 8#37 2.689e-18
CP32 7#17 8 2.13939e-18
CP33 MX111/M0#g 8#40 1.90946e-18
CP34 7#20 MX111/M0#s 1.491e-18
CP35 7 8#38 1.46026e-18
CP36 MX105/M0#d MX104/M0#g 1.31748e-18
CP37 7#16 8#39 4.34141e-17
CP38 7#16 8#37 2.01495e-17
CP39 7#17 8#37 4.65573e-17
CP40 7#16 8#36 7.68129e-17
CP41 MX111/M0#g MX111/M0#s 7.13214e-18
CP42 MX111/M0#g VSS#4 5.74683e-18
CP43 MX105/M0#d VSS#29 5.34191e-18
CP44 MX111/M0#g VSS#28 4.8201e-18
CP45 MX105/M0#d VSS#9 3.62342e-18
CP46 MX105/M0#d VSS#8 3.60004e-18
CP47 7#20 VSS#9 2.30386e-18
CP48 7#20 VSS#8 2.27909e-18
CP49 MX111/M0#g MX91/M0#s 2.24588e-18
CP50 7#20 VSS#29 2.07771e-17
CP51 MX111/M0#g MX111/M0#d 7.57466e-18
RgP272 7 7#8 292.852417 $L=0.97 $W=0.15
RgP273 7#8 7#9 34.134449 $L=0.1645 $W=0.27
RgP274 7#9 MX111/M0#g 432.237946 $L=1.345 $W=0.15
RfP275 7#11 7#12 14.305882 $L=0.19 $W=0.17
RfP276 7#13 7#15 3.764706 $L=0.05 $W=0.17
RfP277 7#16 7#17 149.458832 $L=1.985 $W=0.17
ReP278 7#18 7#19 0.423913 $L=0.78 $W=0.23
ReP279 7#19 7#20 0.793478 $L=1.46 $W=0.23
RhP280 MX105/M0#d 7#15 15.000000 $A=0.0289
Rh_2_P281 MX109/M0#d 7#11 15.000000 $A=0.0289
RjP282 7#12 7#18 152.000000 $A=0.0289
RjP283 7#17 7#19 152.000000 $A=0.0289
RjP284 7#13 7#20 152.000000 $A=0.0289
RiP285 7#8 7#16 15.000000 $A=0.0289
RmwP286 MX89/M0#d MX105/M0#d 0.001000 $W=1000000
RmwP287 MX110/M0#g 7 0.001000 $W=1000000
RmwP288 MM1#d MX109/M0#d 0.001000 $W=1000000
*
*|NET SN 1.16598e-15
*|P (SN X 0 5.5350 1.9250)
*|I (MX91/M0#g MX91/M0 g X 0 7.9650 0.8000)
*|I (MX90/M0#g MX90/M0 g X 0 5.8150 0.8000)
*|I (MX70/M0#g MX70/M0 g X 0 7.9650 3.2800)
*|I (MX69/M0#g MX69/M0 g X 0 5.8150 3.2800)
*|S (SN#15 5.8150 1.6300)
*|S (SN#16 5.8150 1.4650)
*|S (SN#17 8.0250 1.7945)
*|S (SN#18 8.0250 1.6300)
*|S (SN#19 8.0250 1.4650)
*|S (SN#20 8.0250 1.6300)
*|S (SN#21 5.8150 1.6300)
*|S (SN#22 5.5200 1.6300)
*|S (SN#23 5.5200 1.6300)
CG1 MX69/M0#g VSS 6.79786e-18
CG2 MX70/M0#g VSS 5.75287e-18
CG3 MX90/M0#g VSS 2.69357e-17
CG4 MX91/M0#g VSS 1.63079e-17
CG5 SN#23 VSS 4.27289e-18
CG6 SN#21 VSS 2.13003e-17
CG7 SN#20 VSS 3.84102e-17
CG8 SN#22 VSS 8.95041e-18
CG9 SN VSS 1.99261e-18
CG10 SN#20 57#7 2.09268e-18
CG11 SN#20 57#8 1.92533e-18
CG12 SN#20 51 7.89981e-18
CG13 MX70/M0#g 57#6 3.59e-18
CG14 MX70/M0#g 57#7 2.49399e-18
CG15 MX91/M0#g 51 6.57799e-18
CG16 MX70/M0#g MX70/M0#d 5.29883e-18
CG17 SN#20 MX104/M0#g 5.39372e-18
CG18 MX91/M0#g MX111/M0#s 1.9309e-18
CG19 SN#20 8#37 6.73089e-17
CG20 SN#20 8#39 7.77642e-18
CG21 SN#20 8#36 1.23056e-17
CG22 SN#20 7#17 5.3759e-18
CG23 SN#20 7#19 4.94684e-18
CG24 MX70/M0#g 7#16 3.95914e-18
CG25 SN#21 7#20 3.47268e-18
CG26 SN#21 7#19 6.52077e-18
CG27 SN 6#12 5.47702e-18
CG28 MX69/M0#g MX69/M0#d 5.29259e-18
CG29 MX69/M0#g 6#19 3.96553e-18
CG30 MX69/M0#g 6#12 3.59e-18
CG31 MX69/M0#g 6#23 2.43274e-18
CG32 SN 6#19 1.70359e-17
CG33 SN 6#20 8.28053e-18
CG34 SN 6#23 2.01859e-17
CG35 SN#21 6#21 1.14934e-17
CG36 SN#21 6#25 5.90645e-18
CG37 SN#20 5#31 5.71484e-18
CG38 MX90/M0#g 5#32 4.21785e-18
CG39 MX90/M0#g 5#31 2.67285e-18
CG40 MX90/M0#g MX79/M0#d 1.88846e-18
CG41 SN#20 5#30 4.3332e-17
CG42 SN#23 5#32 9.72913e-18
CG43 SN#21 5#31 7.95033e-17
CG44 SN#21 5#32 1.78031e-17
CG45 SN 5#26 6.85625e-18
CG46 SN 5#38 1.21491e-17
CG47 SN 5#37 8.26976e-17
CG48 SN#20 5#40 2.60058e-17
CG49 SN#22 5#38 8.70895e-18
CG50 SN#22 5#32 2.91349e-17
CG51 SN#23 5#38 3.86657e-17
CG52 SN 4#17 5.12459e-18
CG53 SN#22 4#19 4.80544e-18
CG54 SN#23 4#18 2.97959e-17
CG55 SN 4#18 7.10423e-17
CG56 SN#23 4#19 1.43473e-17
CG57 SN#21 4#18 1.88638e-17
CG58 SN 3#38 1.94361e-17
CG59 SN#20 3#37 1.53591e-17
CG60 SN#21 3#38 2.07847e-17
CG61 SN#22 3#38 2.87244e-17
CG62 SN#21 3#37 7.68944e-17
CG63 MX91/M0#g VSS#28 4.8201e-18
CG64 MX91/M0#g VSS#8 4.29097e-18
CG65 MX90/M0#g VSS#9 3.62458e-18
CG66 MX90/M0#g VSS#29 2.91292e-18
CG67 SN#20 VSS#28 7.63762e-18
CG68 MX90/M0#g MX90/M0#s 8.25595e-18
CG69 SN#20 MX91/M0#s 6.52666e-18
CG70 MX91/M0#g MX91/M0#s 8.30381e-18
CG71 MX69/M0#g VDD#13 5.77573e-18
CG72 MX70/M0#g VDD#10 5.77573e-18
CG73 SN VDD 5.50302e-18
CG74 SN VDD#29 4.83234e-18
CG75 MX70/M0#g VDD#28 3.22798e-18
CG76 MX69/M0#g VDD#29 3.213e-18
CG77 MX69/M0#g VDD 1.7787e-17
CG78 MX70/M0#g VDD 1.7787e-17
CG79 MX69/M0#g MX84/M0#s 9.09431e-18
CG80 MX70/M0#g MX85/M0#s 9.1005e-18
RgG54 MX69/M0#g SN#15 511.359100 $L=1.65 $W=0.15
RgG55 SN#15 SN#16 34.134449 $L=0.1645 $W=0.27
RgG56 SN#16 MX90/M0#g 213.731293 $L=0.665 $W=0.15
RgG57 MX70/M0#g SN#17 477.224640 $L=1.485 $W=0.15
RgG58 SN#17 SN#18 38.857975 $L=0.1645 $W=0.27
RgG59 SN#18 SN#19 29.410927 $L=0.1645 $W=0.27
RgG60 SN#19 MX91/M0#g 213.731293 $L=0.665 $W=0.15
RfG61 SN#20 SN#21 166.399994 $L=2.21 $W=0.17
RfG62 SN#21 SN#22 22.211765 $L=0.295 $W=0.17
ReG63 SN SN#23 0.141827 $L=0.295 $W=0.26
RjG64 SN#22 SN#23 152.000000 $A=0.0289
RiG65 SN#18 SN#20 15.000000 $A=0.0289
RiG66 SN#15 SN#21 15.000000 $A=0.0289
*
*|NET CK 5.11879e-16
*|P (CK X 0 2.3150 1.2650)
*|I (MX78/M0#g MX78/M0 g X 0 2.6250 0.8000)
*|I (MX67/M0#g MX67/M0 g X 0 2.6250 3.2800)
*|S (CK#8 2.6250 1.2900)
*|S (CK#9 2.6250 1.1250)
*|S (CK#10 2.6250 1.2900)
*|S (CK#11 2.3000 1.2900)
*|S (CK#12 2.3000 1.2900)
CA1 MX67/M0#g VSS 3.02461e-18
CA2 MX78/M0#g VSS 1.74605e-17
CA3 CK#10 VSS 1.54357e-17
CA4 CK#11 VSS 1.4459e-17
CA5 CK VSS 2.8885e-17
CA6 MX78/M0#g 39 1.10002e-18
CA7 CK 39 1.15975e-17
CA8 MX78/M0#g 3#40 1.8002e-18
CA9 CK#10 MX78/M0#d 1.20501e-17
CA10 MX67/M0#g 3#33 3.59e-18
CA11 CK#10 3#40 5.92998e-18
CA12 CK MX78/M0#d 4.61085e-18
CA13 MX67/M0#g MX67/M0#d 5.25617e-18
CA14 CK 3#43 5.2252e-17
CA15 CK 3#42 2.7851e-17
CA16 CK#10 3#43 1.75408e-17
CA17 MX67/M0#g 3#40 2.85079e-18
CA18 MX78/M0#g MX78/M0#d 7.13214e-18
CA19 MX78/M0#g MX106/M0#d 1.76427e-18
CA20 MX67/M0#g MX87/M0#s 1.28873e-18
CA21 CK MX106/M0#d 1.11123e-18
CA22 MX67/M0#g 2#9 8.42957e-19
CA23 CK MX92/M0#d 3.20202e-18
CA24 CK#10 2#16 3.07011e-18
CA25 CK#11 2#15 3.53129e-18
CA26 MX67/M0#g 2#13 6.66167e-18
CA27 CK 2#15 5.49284e-17
CA28 CK MX79/M0#s 2.27729e-18
CA29 CK#11 VSS#29 1.64805e-18
CA30 CK#11 MX78/M0#s 1.40576e-17
CA31 CK MX76/M0#s 4.76039e-18
CA32 CK VSS#13 2.78061e-18
CA33 CK MX78/M0#s 3.62647e-17
CA34 MX78/M0#g VSS#13 3.64084e-18
CA35 CK VSS#29 3.15339e-17
CA36 MX78/M0#g VSS#29 4.8201e-18
CA37 CK#10 VSS#29 2.81567e-18
CA38 CK#10 MX78/M0#s 8.85908e-18
CA39 MX78/M0#g MX78/M0#s 7.57466e-18
CA40 MX67/M0#g VDD#29 2.59032e-18
CA41 MX67/M0#g MX82/M0#s 9.10442e-18
CA42 MX67/M0#g VDD#21 4.31255e-18
CA43 MX67/M0#g VDD 5.91821e-18
CA44 CK#10 SI#11 2.27521e-18
CA45 CK#11 MX74/M0#g 5.6221e-18
CA46 CK#11 SI#11 8.22564e-18
CA47 CK SI#11 6.35411e-18
CA48 CK SI#12 3.72165e-17
RgA1 MX67/M0#g CK#8 620.612427 $L=1.99 $W=0.15
RgA2 CK#8 CK#9 34.134449 $L=0.1645 $W=0.27
RgA3 CK#9 MX78/M0#g 104.477959 $L=0.325 $W=0.15
RfA4 CK#10 CK#11 24.470589 $L=0.325 $W=0.17
ReA5 CK CK#12 0.012019 $L=0.025 $W=0.26
RjA6 CK#11 CK#12 152.000000 $A=0.0289
RiA7 CK#8 CK#10 15.000000 $A=0.0289
*
*|NET 6 1.6687e-15
*|I (MX105/M0#s MX105/M0 s X 0 6.5995 0.8000)
*|I (MX103/M0#d MX103/M0 d X 0 6.3205 0.8000)
*|I (MX75/M0#g MX75/M0 g X 0 4.4350 0.8000)
*|I (MX84/M0#d MX84/M0 d X 0 6.3205 3.2800)
*|I (MX83/M0#g MX83/M0 g X 0 4.4350 3.2800)
*|I (MX69/M0#d MX69/M0 d X 0 5.7395 3.2800)
*|I (MM1#s MM1 s X 0 6.5995 3.2800)
*|S (6 4.4350 3.2800)
*|S (6#8 4.4350 2.3100)
*|S (6#9 4.4350 2.1450)
*|S (6#11 5.6000 3.2800)
*|S (6#12 5.6000 3.0900)
*|S (6#14 6.4600 3.2800)
*|S (6#15 6.4600 3.0900)
*|S (6#16 6.4600 0.8500)
*|S (6#18 6.4600 0.8000)
*|S (6#19 6.4600 2.3100)
*|S (6#20 4.4350 2.3100)
*|S (6#21 6.4600 2.3100)
*|S (6#22 6.4600 3.0900)
*|S (6#23 5.7145 3.0900)
*|S (6#24 5.6000 3.0900)
*|S (6#25 6.4600 0.8500)
CO1 MX69/M0#d VSS 9.45133e-19
CO2 MX84/M0#d VSS 2.84311e-18
CO3 MX75/M0#g VSS 2.82344e-17
CO4 MX105/M0#s VSS 2.50131e-18
CO5 6#25 VSS 9.37506e-18
CO6 6#23 VSS 7.18354e-18
CO7 6#22 VSS 6.02097e-18
CO8 6#21 VSS 3.62862e-18
CO9 6#20 VSS 3.22104e-18
CO10 6#12 VSS 1.84404e-18
CO11 6#19 VSS 3.29391e-18
CO12 6#15 VSS 3.76171e-18
CO13 6 VSS 1.2776e-17
CO14 6#25 47 3.31626e-18
CO15 MX105/M0#s 47 1.89122e-17
CO16 6#21 7#17 3.64395e-18
CO17 6#19 7#19 3.64395e-18
CO18 MX105/M0#s 7#20 3.52588e-18
CO19 6#25 MX105/M0#d 3.31626e-18
CO20 6#22 7#12 2.77344e-18
CO21 MX84/M0#d MX109/M0#d 1.79385e-17
CO22 6#19 7#17 1.43305e-17
CO23 6#25 7#20 8.69821e-17
CO24 MX105/M0#s MX105/M0#d 1.89122e-17
CO25 6#15 7#12 1.17256e-17
CO26 6#22 7#18 5.33704e-17
CO27 6#21 7#19 1.105e-16
CO28 MX105/M0#s VSS#9 7.24683e-18
CO29 MX75/M0#g MX79/M0#s 7.1688e-18
CO30 MX105/M0#s VSS#29 5.3592e-18
CO31 MX75/M0#g VSS#10 4.87612e-18
CO32 6#25 VSS#29 2.07771e-17
RgO250 6 6#8 292.852417 $L=0.97 $W=0.15
RgO251 6#8 6#9 34.134449 $L=0.1645 $W=0.27
RgO252 6#9 MX75/M0#g 432.237946 $L=1.345 $W=0.15
RfO253 6#11 6#12 14.305882 $L=0.19 $W=0.17
RfO254 6#14 6#15 14.305882 $L=0.19 $W=0.17
RfO255 6#16 6#18 3.764706 $L=0.05 $W=0.17
RfO256 6#19 6#20 152.470596 $L=2.025 $W=0.17
ReO257 6#21 6#22 0.423913 $L=0.78 $W=0.23
ReO258 6#22 6#23 0.404999 $L=0.745 $W=0.23
ReO259 6#23 6#24 0.053985 $L=0.1145 $W=0.29
ReO260 6#21 6#25 0.793478 $L=1.46 $W=0.23
RhO261 MX105/M0#s 6#18 15.000000 $A=0.0289
Rh_2_O262 MX69/M0#d 6#11 15.000000 $A=0.0289
Rh_2_O263 MX84/M0#d 6#14 15.000000 $A=0.0289
RjO264 6#19 6#21 152.000000 $A=0.0289
RjO265 6#15 6#22 152.000000 $A=0.0289
RjO266 6#12 6#24 152.000000 $A=0.0289
RjO267 6#16 6#25 152.000000 $A=0.0289
RiO268 6#8 6#20 15.000000 $A=0.0289
RmwO269 MX103/M0#d MX105/M0#s 0.001000 $W=1000000
RmwO270 MX83/M0#g 6 0.001000 $W=1000000
RmwO271 MM1#s MX84/M0#d 0.001000 $W=1000000
*
*|NET 4 1.78586e-15
*|I (MX106/M0#s MX106/M0 s X 0 3.6505 0.8000)
*|I (MX103/M0#g MX103/M0 g X 0 6.2450 0.8000)
*|I (MX102/M0#d MX102/M0 d X 0 3.9295 0.8000)
*|I (MX96/M0#d MX96/M0 d X 0 3.9295 3.2800)
*|I (MX87/M0#d MX87/M0 d X 0 3.6505 3.2800)
*|I (MX84/M0#g MX84/M0 g X 0 6.2450 3.2800)
*|S (4 6.2450 3.2800)
*|S (4#8 6.2450 2.6500)
*|S (4#9 6.2450 2.4850)
*|S (4#11 3.7900 3.2800)
*|S (4#12 3.7900 3.0900)
*|S (4#13 3.7900 0.8500)
*|S (4#15 3.7900 0.8000)
*|S (4#16 6.2450 2.6500)
*|S (4#17 6.0300 2.6500)
*|S (4#18 6.0300 2.6500)
*|S (4#19 3.7900 0.8500)
*|S (4#20 3.7900 3.0900)
CM1 MX96/M0#d VSS 1.10217e-18
CM2 MX103/M0#g VSS 2.29551e-17
CM3 MX106/M0#s VSS 6.16771e-18
CM4 4#20 VSS 1.03452e-17
CM5 4#19 VSS 3.23806e-17
CM6 4#18 VSS 1.32885e-17
CM7 4#16 VSS 5.40308e-18
CM8 4#12 VSS 5.66356e-18
CM9 4#17 VSS 4.01657e-18
CM10 4 VSS 5.90359e-18
CM11 4#18 47 2.02879e-17
CM12 MX103/M0#g 47 6.2356e-18
CM13 4#12 45 1.17361e-17
CM14 4#20 45 7.33524e-18
CM15 MX96/M0#d 45 1.66123e-17
CM16 MX106/M0#s 43 1.87389e-17
CM17 4#19 43 2.62744e-17
CM18 4#16 6#21 8.10732e-18
CM19 MX103/M0#g MX105/M0#s 6.2356e-18
CM20 4 MX84/M0#d 4.57251e-18
CM21 4#18 MX105/M0#s 3.75111e-18
CM22 4#19 6#20 3.17458e-18
CM23 4 6#15 3.15253e-18
CM24 4#19 MX75/M0#g 2.09632e-18
CM25 4 6#19 1.50882e-18
CM26 4#17 6#19 2.29029e-17
CM27 4#18 6#21 1.10811e-16
CM28 4#18 6#19 1.85758e-17
CM29 4#16 6#15 1.35469e-17
CM30 4#20 6#20 1.11848e-17
CM31 4#16 6#19 2.75674e-17
CM32 4#18 6#25 9.03463e-17
CM33 4#16 6#22 1.15111e-17
CM34 4#18 6#23 1.89285e-17
CM35 4#18 6#22 2.26615e-17
CM36 4#20 5#36 7.92824e-18
CM37 MX106/M0#s MX102/M0#g 6.2356e-18
CM38 MX96/M0#d 5 4.82703e-18
CM39 4#18 5#32 4.68271e-18
CM40 4#16 5#29 4.11239e-18
CM41 4#18 5#37 3.83309e-18
CM42 4#12 5 3.27061e-18
CM43 4#19 MX102/M0#g 2.38356e-18
CM44 4#19 5#32 1.66348e-17
CM45 MX106/M0#s 5#33 1.34272e-17
CM46 4#20 5#27 3.74722e-17
CM47 4#19 5#38 5.52009e-17
CM48 4#20 5#37 1.40625e-17
CM49 4#12 5#27 2.15361e-17
CM50 MX103/M0#g 5#31 9.27e-18
CM51 4#18 5#31 2.6754e-17
CM52 4#19 MX79/M0#d 2.15737e-17
CM53 4#19 5#33 3.98413e-17
CM54 4#18 5#38 1.07726e-17
CM55 4#19 VSS#10 7.74282e-18
CM56 4#19 VSS#4 7.67199e-18
CM57 MX106/M0#s VSS#4 7.24683e-18
CM58 4#18 VSS#9 6.00319e-18
CM59 MX106/M0#s VSS#29 5.66554e-18
CM60 MX103/M0#g VSS#9 4.87612e-18
CM61 MX103/M0#g VSS#29 4.8201e-18
CM62 4#18 VSS#29 2.77485e-17
CM63 4#19 VSS#29 1.00382e-16
CM64 4#19 MX90/M0#s 2.55344e-17
CM65 4#19 MX79/M0#s 2.73535e-17
RgM203 4 4#8 183.599075 $L=0.63 $W=0.15
RgM204 4#8 4#9 34.134449 $L=0.1645 $W=0.27
RgM205 4#9 MX103/M0#g 541.491272 $L=1.685 $W=0.15
RfM206 4#11 4#12 14.305882 $L=0.19 $W=0.17
RfM207 4#13 4#15 3.764706 $L=0.05 $W=0.17
RfM208 4#16 4#17 16.188236 $L=0.215 $W=0.17
ReM209 4#18 4#19 2.156798 $L=4.07 $W=0.23
ReM210 4#19 4#20 1.217391 $L=2.24 $W=0.23
RhM211 MX106/M0#s 4#15 15.000000 $A=0.0289
Rh_2_M212 MX96/M0#d 4#11 15.000000 $A=0.0289
RjM213 4#17 4#18 152.000000 $A=0.0289
RjM214 4#13 4#19 152.000000 $A=0.0289
RjM215 4#12 4#20 152.000000 $A=0.0289
RiM216 4#8 4#16 15.000000 $A=0.0289
RmwM217 MX102/M0#d MX106/M0#s 0.001000 $W=1000000
RmwM218 MX87/M0#d MX96/M0#d 0.001000 $W=1000000
RmwM219 MX84/M0#g 4 0.001000 $W=1000000
*
*|NET SE 7.48561e-16
*|P (SE X 0 0.9350 1.6500)
*|I (MX88/M0#g MX88/M0 g X 0 1.7650 0.8000)
*|I (MX76/M0#g MX76/M0 g X 0 0.4750 0.8000)
*|I (MX95/M0#g MX95/M0 g X 0 1.3350 3.2800)
*|I (MX72/M0#g MX72/M0 g X 0 0.4750 3.2800)
*|S (SE#15 0.4150 2.1345)
*|S (SE#16 0.4150 1.9700)
*|S (SE#17 0.4150 1.8050)
*|S (SE#18 1.7650 1.9700)
*|S (SE#19 1.4700 1.9700)
*|S (SE#20 1.4700 1.9700)
*|S (SE#21 1.3095 1.9050)
*|S (SE#22 1.1400 1.9050)
*|S (SE#23 0.9200 1.8400)
*|S (SE#24 0.6595 1.9050)
*|S (SE#25 0.4150 1.9700)
*|S (SE#26 0.9200 1.8400)
CE1 MX72/M0#g VSS 5.97319e-19
CE2 MX95/M0#g VSS 4.05118e-18
CE3 MX76/M0#g VSS 1.56399e-17
CE4 MX88/M0#g VSS 2.43603e-17
CE5 SE#25 VSS 2.21806e-17
CE6 SE#22 VSS 5.56045e-18
CE7 SE#21 VSS 1.53201e-17
CE8 SE#23 VSS 6.76326e-18
CE9 SE VSS 6.62982e-18
CE10 MX88/M0#g 35 1.28937e-18
CE11 MX72/M0#g 37 2.50706e-18
CE12 MX76/M0#g 35 1.99359e-18
CE13 SE 35 1.9069e-17
CE14 MX95/M0#g 37 7.70836e-18
CE15 MX95/M0#g 2#3 3.15253e-18
CE16 MX95/M0#g 2#14 2.39864e-18
CE17 SE MX92/M0#d 2.29139e-18
CE18 MX95/M0#g 2 4.59009e-18
CE19 SE 2#15 7.58041e-17
CE20 SE 2#14 4.64714e-18
CE21 MX88/M0#g MX92/M0#d 6.2356e-18
CE22 SE#21 2#15 1.49835e-17
CE23 SE#21 2#14 1.39193e-17
CE24 SE MX76/M0#d 3.46655e-18
CE25 SE#21 MX92/M0#g 3.33477e-18
CE26 MX88/M0#g 1#20 2.28162e-18
CE27 MX76/M0#g 1#25 1.95214e-18
CE28 MX72/M0#g 1#22 1.50468e-18
CE29 SE#23 1#19 1.06551e-18
CE30 SE#22 1#18 7.01743e-18
CE31 SE 1#18 2.27864e-17
CE32 MX95/M0#g 1#20 9.27672e-18
CE33 MX76/M0#g MX76/M0#d 8.12962e-18
CE34 SE#25 1#23 1.49951e-17
CE35 SE#21 1#18 1.13406e-17
CE36 MX76/M0#g 1#19 7.10033e-18
CE37 MX72/M0#g 1#14 4.095e-18
CE38 SE 1#25 2.13889e-17
CE39 SE#25 1#19 1.93364e-17
CE40 SE#21 1#20 9.77395e-18
CE41 SE 1#24 4.99927e-17
CE42 SE 1#23 4.32924e-18
CE43 MX72/M0#g 1#21 6.92662e-18
CE44 SE 1#19 1.04312e-17
CE45 SE#23 1#18 6.73456e-18
CE46 SE#25 1#21 1.5935e-17
CE47 MX72/M0#g MX72/M0#d 6.02125e-18
CE48 SE#25 1#24 1.86353e-17
CE49 SE VSS#14 3.66027e-18
CE50 MX76/M0#g VSS#14 3.64084e-18
CE51 SE#25 VSS#29 2.18366e-18
CE52 MX76/M0#g MX76/M0#s 8.41205e-18
CE53 MX76/M0#g VSS#29 4.8201e-18
CE54 MX88/M0#g VSS#29 4.8201e-18
CE55 SE MX76/M0#s 1.0795e-17
CE56 MX88/M0#g VSS#13 5.74683e-18
CE57 SE VSS#29 2.20091e-17
CE58 MX95/M0#g VDD#24 5.04997e-18
CE59 MX72/M0#g MX72/M0#s 1.01682e-17
CE60 MX72/M0#g VDD#24 3.77064e-18
CE61 MX72/M0#g VDD#29 5.21861e-18
CE62 MX95/M0#g VDD#29 5.21861e-18
CE63 MX72/M0#g VDD 1.39295e-17
CE64 MX95/M0#g VDD 1.60341e-17
CE65 SE#21 SI#11 1.19905e-17
CE66 MX88/M0#g SI#11 2.96733e-18
RgE31 MX72/M0#g SE#15 367.971313 $L=1.145 $W=0.15
RgE32 SE#15 SE#16 38.857975 $L=0.1645 $W=0.27
RgE33 SE#16 SE#17 29.410927 $L=0.1645 $W=0.27
RgE34 SE#17 MX76/M0#g 322.984650 $L=1.005 $W=0.15
RgE35 MX88/M0#g SE#18 347.526733 $L=1.17 $W=0.15
RgE36 SE#18 SE#19 54.220818 $L=0.295 $W=0.27
RgE37 SE#19 MX95/M0#g 420.946655 $L=1.31 $W=0.15
RfE38 SE#20 SE#21 12.057726 $L=0.16 $W=0.17
RfE39 SE#21 SE#22 13.768684 $L=0.169 $W=0.1745
RfE40 SE#22 SE#23 16.575373 $L=0.22 $W=0.17
RfE41 SE#23 SE#24 19.587137 $L=0.26 $W=0.17
RfE42 SE#24 SE#25 11.793457 $L=0.2445 $W=0.3
ReE43 SE SE#26 0.091346 $L=0.19 $W=0.26
RjE44 SE#23 SE#26 152.000000 $A=0.0289
RiE45 SE#19 SE#20 15.000000 $A=0.0289
RiE46 SE#16 SE#25 15.000000 $A=0.0289
*
*|NET 8 1.35823e-15
*|I (MX111/M0#s MX111/M0 s X 0 8.8395 0.8000)
*|I (MX104/M0#g MX104/M0 g X 0 7.5350 0.8000)
*|I (MX80/M0#g MX80/M0 g X 0 9.3450 0.8000)
*|I (MX77/M0#g MX77/M0 g X 0 10.2950 0.8000)
*|I (MX110/M0#s MX110/M0 s X 0 8.8395 3.2800)
*|I (MX85/M0#g MX85/M0 g X 0 7.5350 3.2800)
*|I (MX73/M0#g MX73/M0 g X 0 10.2950 3.2400)
*|I (MX71/M0#g MX71/M0 g X 0 9.3450 3.2800)
*|S (8 7.5350 3.2800)
*|S (8#22 7.5350 1.9700)
*|S (8#23 7.5350 1.8050)
*|S (8#24 9.3850 1.9700)
*|S (8#25 9.3850 1.8050)
*|S (8#26 10.2550 1.9700)
*|S (8#27 10.2550 1.8050)
*|S (8#29 8.7000 3.2800)
*|S (8#30 8.7000 3.0900)
*|S (8#31 8.7000 0.8500)
*|S (8#33 8.7000 0.8000)
*|S (8#34 10.2550 1.9700)
*|S (8#35 9.3850 1.9700)
*|S (8#36 8.7000 1.9700)
*|S (8#37 7.5350 1.9700)
*|S (8#38 8.7000 3.0900)
*|S (8#39 8.7000 1.9700)
*|S (8#40 8.7000 0.8500)
CQ1 MX71/M0#g VSS 1.78401e-18
CQ2 MX73/M0#g VSS 2.26342e-18
CQ3 MX110/M0#s VSS 3.21124e-18
CQ4 MX77/M0#g VSS 1.78862e-17
CQ5 MX80/M0#g VSS 1.38068e-17
CQ6 MX104/M0#g VSS 2.98049e-17
CQ7 MX111/M0#s VSS 4.91253e-18
CQ8 8#40 VSS 1.91857e-17
CQ9 8#39 VSS 8.47093e-18
CQ10 8#38 VSS 6.47919e-18
CQ11 8#37 VSS 2.62144e-17
CQ12 8#35 VSS 2.21424e-17
CQ13 8#34 VSS 2.21346e-17
CQ14 8#36 VSS 2.32612e-17
CQ15 8#30 VSS 1.23958e-18
CQ16 8 VSS 9.48919e-18
CQ17 8#38 MX70/M0#d 1.85952e-18
CQ18 8#36 57#7 1.83636e-18
CQ19 8 57#8 1.71928e-18
CQ20 8#37 57#7 1.69855e-18
CQ21 8#37 57#8 1.46386e-18
CQ22 8 MX70/M0#d 9.59631e-19
CQ23 MX110/M0#s 57#7 8.85463e-19
CQ24 MX110/M0#s MX70/M0#d 1.37837e-17
CQ25 8#30 57#7 2.78697e-18
CQ26 8#30 57#6 8.64104e-18
CQ27 8#38 57#6 3.90043e-18
CQ28 8 57#3 3.15253e-18
CQ29 8 57 4.57084e-18
CQ30 8#38 57#7 2.9672e-17
CQ31 MX80/M0#g 9#17 4.15502e-18
CQ32 MX77/M0#g 9#16 3.74781e-18
CQ33 MX71/M0#g 9#12 3.59e-18
CQ34 8#35 9#12 3.00311e-18
CQ35 MX77/M0#g MX80/M0#d 1.75453e-18
CQ36 MX80/M0#g 9#20 1.50907e-18
CQ37 8#40 MX80/M0#d 1.44388e-18
CQ38 MX73/M0#g 9#12 1.41871e-18
CQ39 MX73/M0#g MX71/M0#d 1.40442e-18
CQ40 MX111/M0#s 9#20 1.36786e-18
CQ41 MX71/M0#g 9#18 1.24079e-18
CQ42 8#30 9#18 1.05245e-18
CQ43 8#35 9#19 3.18781e-17
CQ44 8#34 9#16 2.56509e-17
CQ45 8#39 9#17 6.46312e-18
CQ46 8#40 9#19 7.62719e-18
CQ47 8#40 9#20 2.12908e-17
CQ48 MX80/M0#g MX80/M0#d 7.13214e-18
CQ49 8#35 9#17 3.94719e-17
CQ50 8#39 9#18 6.80783e-18
CQ51 MX71/M0#g MX71/M0#d 5.29259e-18
CQ52 8#34 9#17 2.6925e-17
CQ53 8#39 9#19 3.62411e-17
CQ54 8#38 9#18 2.7996e-17
CQ55 8#35 MX111/M0#d 6.31835e-18
CQ56 8#36 VSS#28 5.88083e-18
CQ57 MX111/M0#s VSS#28 5.64727e-18
CQ58 MX104/M0#g VSS#8 5.45659e-18
CQ59 MX80/M0#g VSS#28 4.8201e-18
CQ60 MX104/M0#g VSS#28 4.8201e-18
CQ61 MX77/M0#g VSS#2 4.29097e-18
CQ62 MX80/M0#g VSS#4 4.29097e-18
CQ63 MX111/M0#s VSS#4 3.42471e-18
CQ64 8#40 VSS#4 3.19787e-18
CQ65 MX77/M0#g VSS#28 3.05747e-18
CQ66 8#36 MX91/M0#s 2.57061e-18
CQ67 8#35 VSS#28 2.17863e-18
CQ68 8#40 VSS#8 2.16757e-18
CQ69 MX111/M0#s MX111/M0#d 2.02979e-17
CQ70 8#40 VSS#28 2.07771e-17
CQ71 MX80/M0#g MX111/M0#d 7.57466e-18
CQ72 MX77/M0#g MX81/M0#s 7.57466e-18
CQ73 MX111/M0#s MX91/M0#s 1.51502e-17
CQ74 8#40 MX91/M0#s 7.69692e-18
CQ75 8#40 MX111/M0#d 7.31964e-18
RgQ289 8 8#22 402.105774 $L=1.31 $W=0.15
RgQ290 8#22 8#23 34.134449 $L=0.1645 $W=0.27
RgQ291 8#23 MX104/M0#g 322.984650 $L=1.005 $W=0.15
RgQ292 MX71/M0#g 8#24 397.382233 $L=1.31 $W=0.15
RgQ293 8#24 8#25 34.134449 $L=0.1645 $W=0.27
RgQ294 8#25 MX80/M0#g 322.984650 $L=1.005 $W=0.15
RgQ295 MX73/M0#g 8#26 389.252441 $L=1.27 $W=0.15
RgQ296 8#26 8#27 34.134449 $L=0.1645 $W=0.27
RgQ297 8#27 MX77/M0#g 322.984650 $L=1.005 $W=0.15
RfQ298 8#29 8#30 14.305882 $L=0.19 $W=0.17
RfQ299 8#31 8#33 3.764706 $L=0.05 $W=0.17
RfQ300 8#34 8#35 65.505882 $L=0.87 $W=0.17
RfQ301 8#35 8#36 51.576469 $L=0.685 $W=0.17
RfQ302 8#36 8#37 87.717644 $L=1.165 $W=0.17
ReQ303 8#38 8#39 0.608696 $L=1.12 $W=0.23
ReQ304 8#39 8#40 0.608696 $L=1.12 $W=0.23
RhQ305 MX111/M0#s 8#33 15.000000 $A=0.0289