*
*|DSPF 1.5
*
*|DATE "Fri Feb 28 12:18:00 2025"
*|VENDOR "Cadence Design Systems"
*|PROGRAM "Cadence Quantus Extraction"
*|VERSION "22.1.0-p089 Linux 64 bit - (Thu Jan 19 11:47:08 PST 2023)"
*|DESIGN "SDFFSRX1_LP"
*|DIVIDER /
*|DELIMITER #
*|DeviceFingerDelim "@"
*|BUSBIT []
*|GLOBAL_TEMPERATURE 25
*|OPERATING_TEMPERATURE 25
** QRC_TECH_DIR /vols/wfo_devel/projects/reference_SKY130/tech/sky130_release_0.0.4/quantus/extraction/typical 
** HIERARCHICAL_SPLIT_PINS_DELIMITER '%'
** caps2d version: 10
*
.SUBCKT  SDFFSRX1_LP CK D Q QN RN SE SI SN VDD VSS
*
*Net Section
*
*|GROUND_NET VSS
*
*|NET 10 1.03722e-15
*|I (MX105/M0#d MX105/M0 d X 0 12.7905 0.8000)
*|I (MX93/M0#g MX93/M0 g X 0 14.0950 0.8000)
*|I (MX106/M0#g MX106/M0 g X 0 14.0950 3.2400)
*|I (MX103/M0#d MX103/M0 d X 0 12.7905 3.2800)
*|S (10 14.0950 3.2400)
*|S (10#8 14.1850 1.9700)
*|S (10#9 14.0950 1.8350)
*|S (10#11 12.9300 3.2800)
*|S (10#12 12.9300 3.0900)
*|S (10#13 12.9300 0.8500)
*|S (10#15 12.9300 0.8000)
*|S (10#16 14.1850 1.9700)
*|S (10#17 12.9300 1.9700)
*|S (10#18 12.9300 3.0900)
*|S (10#19 12.9300 1.9700)
*|S (10#20 12.9300 0.8500)
CS1 MX103/M0#d VSS 1.7767e-18
CS2 MX93/M0#g VSS 1.72545e-17
CS3 MX105/M0#d VSS 3.49956e-18
CS4 10#20 VSS 8.66689e-18
CS5 10#19 VSS 4.09194e-18
CS6 10#18 VSS 2.23665e-18
CS7 10#16 VSS 2.86906e-17
CS8 10#17 VSS 2.464e-17
CS9 10#12 VSS 1.0549e-18
CS10 10 VSS 5.8915e-18
CS11 MX93/M0#g VSS#32 3.72031e-18
CS12 MX93/M0#g VSS#2 3.71628e-18
CS13 MX105/M0#d VSS#33 5.476e-18
CS14 MX105/M0#d VSS#5 6.01954e-18
CS15 10#20 VSS#5 5.37701e-18
CS16 10#20 VSS#33 1.74471e-17
CS17 MX105/M0#d MX105/M0#s 1.97434e-17
CS18 MX93/M0#g MX93/M0#s 8.41205e-18
CS19 10#16 MX93/M0#s 8.1612e-18
CS20 10#20 MX105/M0#s 6.55166e-18
RgS379 10 10#8 384.431519 $L=1.27 $W=0.15
RgS380 10#8 10#9 31.545456 $L=0.1345 $W=0.33
RgS381 10#9 MX93/M0#g 332.616516 $L=1.035 $W=0.15
RfS382 10#11 10#12 14.305882 $L=0.19 $W=0.17
RfS383 10#13 10#15 3.764706 $L=0.05 $W=0.17
RfS384 10#16 10#17 94.494118 $L=1.255 $W=0.17
ReS385 10#18 10#19 0.608696 $L=1.12 $W=0.23
ReS386 10#19 10#20 0.608696 $L=1.12 $W=0.23
RhS387 MX105/M0#d 10#15 15.000000 $A=0.0289
Rh_2_S388 MX103/M0#d 10#11 15.000000 $A=0.0289
RjS389 10#12 10#18 152.000000 $A=0.0289
RjS390 10#17 10#19 152.000000 $A=0.0289
RjS391 10#13 10#20 152.000000 $A=0.0289
RiS392 10#8 10#16 15.000000 $A=0.0289
RmwS393 MX106/M0#g 10 0.001000 $W=1000000
*
*|NET 42 1.05667e-16
*|I (MX110/M0#s MX110/M0 s X 0 1.2595 0.8000)
*|I (MX84/M0#d MX84/M0 d X 0 0.9805 0.8000)
*|S (42 1.1200 0.8000)
CT1 42 VSS 9.74635e-18
CT2 42 VSS#34 7.24813e-18
CT3 42 MX90/M0#s 2.24884e-17
CT4 42 VSS#24 6.01954e-18
RmwT394 MX110/M0#s 42 0.001000 $W=1000000
RmwT395 MX84/M0#d 42 0.001000 $W=1000000
*
*|NET 44 1.49536e-16
*|I (MX113/M0#s MX113/M0 s X 0 1.2595 3.2800)
*|I (MX94/M0#d MX94/M0 d X 0 0.9805 3.2800)
*|S (44 1.1200 3.2350)
CT5 44 VSS 3.20566e-18
RmwT396 MX113/M0#s 44 0.001000 $W=1000000
RmwT397 MX94/M0#d 44 0.001000 $W=1000000
*
*|NET 46 1.14426e-16
*|I (MX107/M0#s MX107/M0 s X 0 1.8405 0.8000)
*|I (MX78/M0#d MX78/M0 d X 0 2.1195 0.8000)
*|S (46 1.9800 0.8000)
CT6 46 VSS 1.20444e-17
CT7 46 VSS#23 6.01954e-18
CT8 46 VSS#34 7.48732e-18
CT9 46 MX86/M0#s 1.92829e-17
RmwT398 MX107/M0#s 46 0.001000 $W=1000000
RmwT399 MX78/M0#d 46 0.001000 $W=1000000
*
*|NET 48 1.37106e-16
*|I (MX115/M0#d MX115/M0 d X 0 2.1195 3.2800)
*|I (MX97/M0#s MX97/M0 s X 0 1.8405 3.2800)
*|S (48 1.9800 3.2350)
CT10 48 VSS 3.08204e-18
RmwT400 MX115/M0#d 48 0.001000 $W=1000000
RmwT401 MX97/M0#s 48 0.001000 $W=1000000
*
*|NET 50 1.46254e-16
*|I (MX116/M0#d MX116/M0 d X 0 7.1195 3.2800)
*|I (MX114/M0#s MX114/M0 s X 0 6.8405 3.2800)
*|S (50 6.9800 3.2350)
CT11 50 VSS 1.02334e-17
RmwT402 MX116/M0#d 50 0.001000 $W=1000000
RmwT403 MX114/M0#s 50 0.001000 $W=1000000
*
*|NET 52 1.45425e-16
*|I (MX130/M0#s MX130/M0 s X 0 7.9795 3.2800)
*|I (MX95/M0#d MX95/M0 d X 0 7.7005 3.2800)
*|S (52 7.8400 3.2350)
CT12 52 VSS 1.78431e-17
RmwT404 MX130/M0#s 52 0.001000 $W=1000000
RmwT405 MX95/M0#d 52 0.001000 $W=1000000
*
*|NET 54 1.05259e-16
*|I (MX109/M0#d MX109/M0 d X 0 7.7905 0.8000)
*|I (MX98/M0#s MX98/M0 s X 0 8.0695 0.8000)
*|S (54 7.9300 0.8000)
CT13 54 VSS 1.27451e-17
CT14 54 VSS#33 7.48732e-18
CT15 54 MX109/M0#s 2.12712e-17
CT16 54 VSS#9 6.01954e-18
RmwT406 MX109/M0#d 54 0.001000 $W=1000000
RmwT407 MX98/M0#s 54 0.001000 $W=1000000
*
*|NET 56 1.49971e-16
*|I (MX132/M0#s MX132/M0 s X 0 10.0305 3.2800)
*|I (MX96/M0#d MX96/M0 d X 0 10.3095 3.2800)
*|S (56 10.1700 3.2350)
CT17 56 VSS 1.24111e-17
CT18 56 62#3 9.79226e-18
CT19 56 62 1.62744e-17
CT20 56 62#8 2.0873e-17
RmwT408 MX132/M0#s 56 0.001000 $W=1000000
RmwT409 MX96/M0#d 56 0.001000 $W=1000000
*
*|NET 62 5.64916e-16
*|I (MX132/M0#d MX132/M0 d X 0 9.8795 3.2800)
*|I (MX131/M0#s MX131/M0 s X 0 9.6005 3.2800)
*|I (MX81/M0#d MX81/M0 d X 0 10.8905 3.2800)
*|S (62 9.7400 3.2800)
*|S (62#2 9.7400 3.2800)
*|S (62#3 9.7400 3.0900)
*|S (62#5 11.0300 3.2800)
*|S (62#6 11.0300 3.0900)
*|S (62#7 11.0300 3.0900)
*|S (62#8 9.7400 3.0900)
CU1 MX81/M0#d VSS 2.47805e-19
CU2 62#8 VSS 1.18901e-17
CU3 62#7 VSS 8.64385e-18
CU4 62#3 VSS 5.50795e-18
CU5 62#6 VSS 4.29374e-18
CU6 62 VSS 5.50543e-18
RfU410 62#2 62#3 14.305882 $L=0.19 $W=0.17
RfU411 62#5 62#6 14.305882 $L=0.19 $W=0.17
ReU412 62#7 62#8 0.948529 $L=1.29 $W=0.17
Rh_2_U413 62 62#2 15.000000 $A=0.0289
Rh_2_U414 MX81/M0#d 62#5 15.000000 $A=0.0289
RjU415 62#6 62#7 152.000000 $A=0.0289
RjU416 62#3 62#8 152.000000 $A=0.0289
RmwU417 MX132/M0#d 62 0.001000 $W=1000000
RmwU418 MX131/M0#s 62 0.001000 $W=1000000
*
*|NET 63 4.40147e-16
*|I (MX129/M0#s MX129/M0 s X 0 10.3995 0.8000)
*|I (MX118/M0#s MX118/M0 s X 0 10.9805 0.8000)
*|I (MX85/M0#d MX85/M0 d X 0 11.2595 0.8000)
*|S (63 10.2600 1.0800)
*|S (63#3 10.2600 0.8000)
*|S (63#4 11.1200 1.0800)
*|S (63#6 11.1200 0.8000)
*|S (63#7 11.1200 1.0800)
*|S (63#8 10.2600 1.0800)
CU7 MX118/M0#s VSS 1.41919e-18
CU8 MX129/M0#s VSS 2.68907e-18
CU9 63#8 VSS 1.76746e-17
CU10 63#7 VSS 2.24695e-17
CU11 63#4 VSS 1.11972e-17
CU12 63 VSS 1.44718e-17
CU13 63#8 65#8 1.34176e-17
CU14 MX129/M0#s 65#8 5.86897e-18
CU15 63 65#3 4.20467e-18
CU16 63#7 65#6 5.29491e-18
CU17 MX118/M0#s 65#6 1.77217e-17
CU18 MX118/M0#s 65#7 5.59123e-18
CU19 63#8 65#7 3.56237e-17
CU20 MX129/M0#s 65#7 9.48728e-18
CU21 63#8 65#6 5.33636e-18
CU22 63 65#6 3.57324e-18
CU23 63#7 65#7 1.05541e-17
CU24 MX129/M0#s 65#6 1.70905e-17
CU25 63#8 65#3 2.41596e-18
CU26 63#4 65#6 3.57324e-18
CU27 MX129/M0#s 65#3 1.14988e-17
CU28 63#7 VSS#2 2.19299e-18
CU29 63#7 VSS#6 1.76313e-18
CU30 MX118/M0#s VSS#2 1.59017e-18
CU31 MX129/M0#s VSS#33 4.72668e-18
CU32 63#4 MX92/M0#s 3.87428e-18
CU33 63#7 MX92/M0#s 2.81235e-18
CU34 MX118/M0#s MX92/M0#s 1.83448e-17
CU35 63#7 VSS#33 1.52405e-17
CU36 MX129/M0#s VSS#2 4.90795e-18
CU37 MX118/M0#s VSS#33 6.13047e-18
CU38 MX118/M0#s VSS#6 3.21567e-18
RfU419 63 63#3 21.082354 $L=0.28 $W=0.17
RfU420 63#4 63#6 21.082354 $L=0.28 $W=0.17
ReU421 63#7 63#8 0.632353 $L=0.86 $W=0.17
RhU422 MX129/M0#s 63#3 15.000000 $A=0.0289
RhU423 MX118/M0#s 63#6 15.000000 $A=0.0289
RjU424 63#4 63#7 152.000000 $A=0.0289
RjU425 63 63#8 152.000000 $A=0.0289
RmwU426 MX85/M0#d MX118/M0#s 0.001000 $W=1000000
*
*|NET D 4.89823e-16
*|P (D X 0 0.9350 2.7050)
*|I (MX84/M0#g MX84/M0 g X 0 0.9050 0.8000)
*|I (MX94/M0#g MX94/M0 g X 0 0.9050 3.2800)
*|S (D#8 0.9050 2.6500)
*|S (D#9 0.9050 2.4850)
*|S (D#10 0.9200 2.6500)
*|S (D#11 0.9050 2.6500)
*|S (D#12 0.9200 2.6500)
CB1 MX94/M0#g VSS 4.05558e-18
CB2 MX84/M0#g VSS 2.49199e-17
CB3 D#11 VSS 1.60862e-18
CB4 D VSS 7.03442e-18
CB5 MX94/M0#g 44 7.75523e-18
CB6 D 44 2.83957e-17
CB7 D#11 44 2.3274e-17
CB8 D 2#3 1.90122e-18
CB9 MX84/M0#g MX110/M0#d 1.31748e-18
CB10 D 2#15 5.3444e-17
CB11 D#11 2#15 7.06074e-18
CB12 D 2 4.20935e-18
CB13 MX84/M0#g MX90/M0#d 1.54951e-18
CB14 MX94/M0#g MX79/M0#d 1.13944e-18
CB15 MX84/M0#g 1#18 3.92299e-18
CB16 D 1#14 2.90353e-18
CB17 D 1#22 5.18019e-17
CB18 D#11 1#21 7.17046e-18
CB19 D#11 1#22 6.97603e-18
CB20 D 1#21 4.19712e-18
CB21 D MX79/M0#d 5.35774e-18
CB22 MX84/M0#g MX90/M0#s 7.16378e-18
CB23 MX84/M0#g VSS#34 3.0946e-18
CB24 MX84/M0#g VSS#24 5.11596e-18
CB25 MX94/M0#g VDD#36 2.43623e-18
CB26 D VDD#27 1.69811e-18
CB27 D VDD#36 4.08563e-17
CB28 D#11 VDD#36 3.31069e-18
CB29 D VDD#30 9.10461e-18
CB30 D#11 VDD 1.64243e-17
CB31 D#11 MX94/M0#s 1.59285e-17
CB32 MX94/M0#g VDD 7.36827e-18
CB33 D MX94/M0#s 3.17196e-17
CB34 MX94/M0#g VDD#30 3.77064e-18
CB35 MX94/M0#g MX94/M0#s 8.70099e-18
CB36 D VDD 1.73297e-17
CB37 D MX115/M0#s 3.89211e-18
CB38 MX84/M0#g SE 1.47855e-18
CB39 D#11 SE#24 3.22066e-18
CB40 D#11 SE#22 7.85253e-18
CB41 D SE 2.28407e-17
CB42 D#11 SE 4.18794e-18
CB43 D#11 MX113/M0#g 5.15706e-18
CB44 D SE#22 4.87177e-18
CB45 D#11 SE#21 1.23047e-17
RgB8 MX94/M0#g D#8 183.599075 $L=0.63 $W=0.15
RgB9 D#8 D#9 34.134449 $L=0.1645 $W=0.27
RgB10 D#9 MX84/M0#g 541.491272 $L=1.685 $W=0.15
RfB11 D#10 D#11 1.129412 $L=0.015 $W=0.17
ReB12 D#12 D 0.025943 $L=0.055 $W=0.265
RjB13 D#10 D#12 152.000000 $A=0.0289
RiB14 D#8 D#11 15.000000 $A=0.0289
*
*|NET QN 5.77493e-16
*|P (QN X 0 14.2750 2.1100)
*|I (MX93/M0#d MX93/M0 d X 0 14.1705 0.8000)
*|I (MX106/M0#d MX106/M0 d X 0 14.1705 3.2400)
*|S (QN#2 14.3100 3.2400)
*|S (QN#3 14.3100 2.9450)
*|S (QN#4 14.3100 1.0050)
*|S (QN#6 14.3100 0.8000)
*|S (QN#7 14.3100 1.0050)
*|S (QN#8 14.3100 2.9450)
CD1 MX93/M0#d VSS 2.14703e-17
CD2 QN#8 VSS 3.57844e-19
CD3 QN#7 VSS 4.87633e-17
CD4 QN VSS 1.41149e-17
CD5 QN#3 10#16 9.73416e-18
CD6 MX93/M0#d MX93/M0#g 8.12401e-18
CD7 QN 10#16 3.8144e-17
CD8 QN#3 10 1.14028e-17
CD9 MX93/M0#d 10#16 5.71711e-18
CD10 QN#3 MX133/M0#g 2.30855e-18
CD11 QN 9#32 2.29267e-18
CD12 QN#7 9#32 6.58962e-18
CD13 QN#7 VSS#2 6.54846e-18
CD14 QN#7 VSS#32 2.58182e-17
CD15 MX93/M0#d VSS#2 6.0875e-18
CD16 MX93/M0#d VSS#32 5.9903e-18
CD17 QN#7 MX93/M0#s 9.36057e-18
CD18 MX93/M0#d MX93/M0#s 2.28621e-17
CD19 QN#8 VDD#2 6.43982e-18
CD20 QN#3 VDD#2 6.1405e-18
CD21 QN#8 MX133/M0#d 1.30496e-17
CD22 QN#3 VDD#34 5.91136e-18
CD23 QN#8 VDD 4.79219e-17
CD24 QN#3 VDD 2.63896e-17
CD25 QN VDD 1.18674e-17
CD26 QN#3 MX133/M0#d 3.20567e-17
CD27 QN#8 VDD#34 2.51295e-17
RfD23 QN#2 QN#3 22.211765 $L=0.295 $W=0.17
RfD24 QN#4 QN#6 15.435293 $L=0.205 $W=0.17
ReD25 QN QN#7 0.468220 $L=1.105 $W=0.295
ReD26 QN QN#8 0.353814 $L=0.835 $W=0.295
RhD27 MX93/M0#d QN#6 15.000000 $A=0.0289
Rh_2_D28 MX106/M0#d QN#2 15.000000 $A=0.0289
RjD29 QN#4 QN#7 76.000000 $A=0.0578
RjD30 QN#3 QN#8 50.666668 $A=0.0867
*
*|NET RN 6.03368e-16
*|P (RN X 0 3.6950 1.8800)
*|I (MX87/M0#g MX87/M0 g X 0 4.0050 0.8000)
*|I (MX83/M0#g MX83/M0 g X 0 4.0050 3.2800)
*|S (RN#8 4.0050 1.9700)
*|S (RN#9 4.0050 1.8050)
*|S (RN#10 4.0050 1.9700)
*|S (RN#11 3.6800 1.9700)
*|S (RN#12 3.6800 1.9700)
CD28 MX83/M0#g VSS 5.63919e-18
CD29 MX87/M0#g VSS 2.00357e-17
CD30 RN#12 VSS 7.80717e-18
CD31 RN#10 VSS 1.03845e-17
CD32 RN#11 VSS 1.0817e-17
CD33 MX83/M0#g 5#21 3.59e-18
CD34 RN#12 5#29 4.52811e-17
CD35 RN#12 5#30 4.85276e-17
CD36 MX83/M0#g MX83/M0#d 5.29259e-18
CD37 RN#10 5#29 1.22564e-17
CD38 MX83/M0#g 5#27 5.15706e-18
CD39 MX87/M0#g MX87/M0#d 7.13214e-18
CD40 MX87/M0#g MX91/M0#d 1.41134e-18
CD41 RN#12 4#31 2.17288e-17
CD42 RN#11 4#31 2.98e-17
CD43 RN#12 4#35 4.72462e-17
CD44 MX83/M0#g 4#31 3.52335e-18
CD45 RN#10 4#31 2.05801e-17
CD46 RN#11 4#34 7.22678e-18
CD47 RN#12 4#34 7.14487e-17
CD48 RN#10 4#30 1.12789e-17
CD49 RN#11 3#45 1.73103e-18
CD50 RN#12 MX91/M0#g 3.93137e-18
CD51 RN#10 3#41 3.20034e-17
CD52 RN#12 3#41 2.05084e-17
CD53 RN#12 3 7.20162e-18
CD54 RN#11 3#41 3.00289e-17
CD55 RN#10 2#19 3.01365e-18
CD56 MX87/M0#g MX104/M0#d 1.76427e-18
CD57 MX83/M0#g MX101/M0#s 1.48815e-18
CD58 RN#11 2#16 9.05043e-19
CD59 RN#12 2#13 2.14292e-17
CD60 MX87/M0#g 2#13 7.09072e-18
CD61 MX87/M0#g VSS#2 3.62964e-18
CD62 RN#12 MX91/M0#s 7.47713e-18
CD63 MX87/M0#g VSS#34 4.8201e-18
CD64 MX87/M0#g MX91/M0#s 7.57466e-18
CD65 RN#12 VSS#34 1.25368e-17
CD66 MX83/M0#g VDD 1.26982e-17
CD67 RN#12 MX83/M0#s 5.34038e-18
CD68 RN#12 VDD 3.58549e-18
CD69 MX83/M0#g VDD#36 5.21861e-18
CD70 MX83/M0#g VDD#2 4.07063e-18
CD71 MX83/M0#g MX83/M0#s 9.15604e-18
RgD31 MX83/M0#g RN#8 402.105774 $L=1.31 $W=0.15
RgD32 RN#8 RN#9 34.134449 $L=0.1645 $W=0.27
RgD33 RN#9 MX87/M0#g 322.984650 $L=1.005 $W=0.15
RfD34 RN#10 RN#11 24.470589 $L=0.325 $W=0.17
ReD35 RN#12 RN 0.043269 $L=0.09 $W=0.26
RjD36 RN#11 RN#12 152.000000 $A=0.0289
RiD37 RN#8 RN#10 15.000000 $A=0.0289
*
*|NET 4 2.30758e-15
*|I (MX98/M0#g MX98/M0 g X 0 8.1450 0.8000)
*|I (MX91/M0#d MX91/M0 d X 0 3.4995 0.8000)
*|I (MX89/M0#g MX89/M0 g X 0 9.0950 0.8000)
*|I (MX131/M0#g MX131/M0 g X 0 9.5250 3.2800)
*|I (MX101/M0#g MX101/M0 g X 0 4.9550 3.2800)
*|I (MX80/M0#d MX80/M0 d X 0 3.4995 3.2800)
*|S (4 4.9550 3.2800)
*|S (4#15 4.9550 2.4745)
*|S (4#16 4.9550 2.3100)
*|S (4#17 8.2050 1.1650)
*|S (4#18 8.2050 1.0900)
*|S (4#19 8.2050 2.3100)
*|S (4#20 9.5250 2.4745)
*|S (4#21 9.5250 2.3100)
*|S (4#23 3.3600 3.2800)
*|S (4#24 3.3600 3.0900)
*|S (4#25 3.3600 0.8500)
*|S (4#27 3.3600 0.8000)
*|S (4#28 9.5250 2.3100)
*|S (4#29 8.2050 2.3100)
*|S (4#30 4.9550 2.3100)
*|S (4#31 3.2100 2.3100)
*|S (4#32 3.3600 3.0900)
*|S (4#33 3.2850 2.9450)
*|S (4#34 3.2100 2.3100)
*|S (4#35 3.2850 0.9945)
*|S (4#36 3.3600 0.8500)
CM1 MX80/M0#d VSS 2.33746e-18
CM2 MX131/M0#g VSS 1.81201e-17
CM3 MX89/M0#g VSS 2.55515e-17
CM4 MX91/M0#d VSS 4.39818e-18
CM5 MX98/M0#g VSS 3.42421e-17
CM6 4#35 VSS 9.49667e-18
CM7 4#34 VSS 6.39037e-18
CM8 4#33 VSS 5.85925e-18
CM9 4#30 VSS 9.94023e-18
CM10 4#29 VSS 7.19259e-18
CM11 4#28 VSS 3.54128e-18
CM12 4#31 VSS 3.40678e-18
CM13 4#24 VSS 2.43741e-18
CM14 4 VSS 1.72169e-17
CM15 MX89/M0#g MX128/M0#d 6.49954e-18
CM16 MX131/M0#g MX131/M0#d 4.58144e-18
CM17 4#28 8#19 2.51237e-17
CM18 4#28 8#17 5.69914e-17
CM19 MX98/M0#g 7#21 9.48365e-18
CM20 MX89/M0#g MX89/M0#s 7.13214e-18
CM21 MX89/M0#g 7#20 2.9046e-18
CM22 4#29 7#26 1.7425e-17
CM23 4#28 7#28 1.19134e-17
CM24 4#30 7#26 1.56725e-17
CM25 4#29 7#28 1.21083e-17
CM26 MX98/M0#g MX98/M0#d 7.13214e-18
CM27 4 MX101/M0#d 6.17686e-18
CM28 4 6#13 4.08056e-18
CM29 4#30 6#25 7.86723e-17
CM30 4#30 6#28 1.54331e-17
CM31 4#29 6#23 8.49626e-17
CM32 4#30 6#24 5.28538e-17
CM33 4#29 6#24 7.74591e-17
CM34 4#29 6#31 2.90811e-17
CM35 4#34 5#29 8.71035e-18
CM36 MX131/M0#g 5#25 8.63416e-18
CM37 4#31 5#27 8.47911e-18
CM38 4 5#27 8.1658e-18
CM39 4#33 5#29 5.61088e-18
CM40 4#29 5#25 5.52808e-18
CM41 4#34 5#27 3.02027e-18
CM42 4#33 5#27 1.89164e-18
CM43 4 MX83/M0#d 1.64014e-18
CM44 4#28 5#25 7.02685e-17
CM45 4#29 5#26 1.7732e-16
CM46 4#30 5#26 7.01182e-17
CM47 4#30 5#29 2.42443e-17
CM48 4#33 5#28 1.41281e-17
CM49 4#30 5#27 1.23159e-16
CM50 4#35 5#30 1.72646e-17
CM51 4#35 VSS#2 6.89195e-18
CM52 4#35 MX91/M0#s 6.41639e-18
CM53 MX91/M0#d VSS#2 6.01954e-18
CM54 MX91/M0#d VSS#34 5.3592e-18
CM55 MX98/M0#g VSS#9 4.87612e-18
CM56 MX89/M0#g VSS#33 4.8201e-18
CM57 MX91/M0#d MX91/M0#s 2.01479e-17
CM58 4#35 VSS#34 2.76266e-17
RgM235 4 4#15 258.717957 $L=0.805 $W=0.15
RgM236 4#15 4#16 34.134449 $L=0.1645 $W=0.27
RgM237 MX89/M0#g 4#17 349.837158 $L=1.235 $W=0.15
RgM238 4#17 4#18 14.791382 $L=0.0745 $W=0.27
RgM239 4#18 MX98/M0#g 93.231293 $L=0.29 $W=0.15
RgM240 4#17 4#19 205.761566 $L=1.1445 $W=0.27
RgM241 MX131/M0#g 4#20 258.717957 $L=0.805 $W=0.15
RgM242 4#20 4#21 34.134449 $L=0.1645 $W=0.27
RfM243 4#23 4#24 14.305882 $L=0.19 $W=0.17
RfM244 4#25 4#27 3.764706 $L=0.05 $W=0.17
RfM245 4#28 4#29 99.388229 $L=1.32 $W=0.17
RfM246 4#29 4#30 244.705887 $L=3.25 $W=0.17
RfM247 4#30 4#31 131.388229 $L=1.745 $W=0.17
ReM248 4#32 4#33 0.062369 $L=0.1445 $W=0.38
ReM249 4#33 4#34 0.345191 $L=0.635 $W=0.23
ReM250 4#34 4#35 0.714756 $L=1.315 $W=0.23
ReM251 4#35 4#36 0.062369 $L=0.1445 $W=0.38
RhM252 MX91/M0#d 4#27 15.000000 $A=0.0289
Rh_2_M253 MX80/M0#d 4#23 15.000000 $A=0.0289
RjM254 4#24 4#32 152.000000 $A=0.0289
RjM255 4#31 4#34 152.000000 $A=0.0289
RjM256 4#25 4#36 152.000000 $A=0.0289
RiM257 4#21 4#28 15.000000 $A=0.0289
RiM258 4#19 4#29 15.000000 $A=0.0289
RiM259 4#16 4#30 15.000000 $A=0.0289
RmwM260 MX101/M0#g 4 0.001000 $W=1000000
*
*|NET 3 2.66382e-15
*|I (MX128/M0#g MX128/M0 g X 0 9.5250 0.8000)
*|I (MX104/M0#g MX104/M0 g X 0 4.9550 0.8000)
*|I (MX91/M0#g MX91/M0 g X 0 3.5750 0.8000)
*|I (MX86/M0#d MX86/M0 d X 0 2.7005 0.8000)
*|I (MX130/M0#g MX130/M0 g X 0 8.0550 3.2800)
*|I (MX100/M0#g MX100/M0 g X 0 9.0950 3.2800)
*|I (MX82/M0#d MX82/M0 d X 0 2.7005 3.2800)
*|I (MX80/M0#g MX80/M0 g X 0 3.5750 3.2800)
*|S (3 3.5750 3.2800)
*|S (3#22 3.5150 1.7945)
*|S (3#23 3.5150 1.6300)
*|S (3#24 3.5150 1.4650)
*|S (3#25 4.9550 1.4650)
*|S (3#26 4.9550 1.6300)
*|S (3#27 9.0350 2.7750)
*|S (3#28 9.0350 1.6300)
*|S (3#29 9.5250 1.3150)
*|S (3#30 9.5250 1.4800)
*|S (3#32 2.8400 3.2800)
*|S (3#33 2.8400 3.0900)
*|S (3#34 2.8400 0.8500)
*|S (3#36 2.8400 0.8000)
*|S (3#37 9.5250 1.4800)
*|S (3#38 9.4400 1.6300)
*|S (3#39 9.0350 1.6300)
*|S (3#40 4.9550 1.6300)
*|S (3#41 3.5150 1.6300)
*|S (3#42 2.8000 1.6300)
*|S (3#43 2.8400 3.0900)
*|S (3#44 2.7625 2.9450)
*|S (3#45 2.7425 1.7745)
*|S (3#46 2.8000 1.6300)
*|S (3#47 2.7425 1.4850)
*|S (3#48 2.7625 0.9945)
*|S (3#49 2.8400 0.8500)
CL1 MX82/M0#d VSS 3.59827e-18
CL2 MX100/M0#g VSS 1.24269e-17
CL3 MX130/M0#g VSS 1.94539e-17
CL4 MX86/M0#d VSS 8.2944e-19
CL5 MX91/M0#g VSS 2.08086e-17
CL6 MX104/M0#g VSS 2.63755e-17
CL7 MX128/M0#g VSS 2.46415e-17
CL8 3#48 VSS 8.2812e-18
CL9 3#45 VSS 1.30953e-17
CL10 3#44 VSS 5.12515e-18
CL11 3#41 VSS 1.96431e-17
CL12 3#40 VSS 5.141e-17
CL13 3#39 VSS 5.18676e-17
CL14 3#38 VSS 2.58693e-17
CL15 3#42 VSS 1.85407e-17
CL16 3#33 VSS 1.41378e-18
CL17 3 VSS 6.98254e-18
CL18 3#40 64#7 1.56261e-18
CL19 3#38 65#8 2.84481e-18
CL20 3#40 64#8 4.55517e-18
CL21 3#40 64#3 4.16364e-18
CL22 MX128/M0#g 65#3 7.16439e-18
CL23 3#38 9#35 1.70909e-17
CL24 MX128/M0#g MX128/M0#d 6.49954e-18
CL25 3#38 8#20 6.47726e-18
CL26 MX100/M0#g MX131/M0#d 4.794e-18
CL27 3#38 MX128/M0#d 3.91703e-18
CL28 MX100/M0#g 8#12 3.27061e-18
CL29 3#39 8#19 1.09304e-17
CL30 3#38 8#19 1.74837e-17
CL31 3#39 8#17 1.76928e-17
CL32 3#38 8#17 3.17813e-17
CL33 3#39 7#22 9.26179e-18
CL34 MX100/M0#g MX100/M0#s 5.46473e-18
CL35 3#38 7#20 4.8178e-18
CL36 MX100/M0#g 7#16 3.7358e-18
CL37 3#39 MX109/M0#g 1.39263e-18
CL38 3#39 7#29 2.40618e-17
CL39 3#40 7#27 3.31314e-17
CL40 3#39 7#20 6.07693e-17
CL41 3#40 7#22 5.41784e-17
CL42 3#39 7#21 9.59865e-17
CL43 MX104/M0#g MX104/M0#s 7.46971e-18
CL44 3#40 MX104/M0#s 6.42402e-18
CL45 MX130/M0#g MX130/M0#d 5.46473e-18
CL46 3#40 MX117/M0#g 5.38017e-18
CL47 MX130/M0#g 6#19 3.7358e-18
CL48 3#40 6#24 8.58846e-17
CL49 3#40 6#25 7.86723e-17
CL50 3#39 6#24 4.52571e-17
CL51 3#40 6#28 2.08e-17
CL52 3#39 6#23 8.49626e-17
CL53 3#39 6#31 2.9071e-17
CL54 MX130/M0#g 5#26 9.34645e-18
CL55 MX100/M0#g 5#25 9.10069e-18
CL56 3#40 5#30 1.20485e-17
CL57 3#41 5#30 1.16006e-17
CL58 3#41 4#34 9.77451e-18
CL59 3#33 4#24 8.64044e-18
CL60 MX91/M0#g MX91/M0#d 7.15086e-18
CL61 3#39 4#29 6.20858e-18
CL62 3#41 4#35 6.07927e-18
CL63 3#41 4#31 5.84631e-18
CL64 3 4#31 5.45622e-18
CL65 3#39 MX89/M0#g 5.39372e-18
CL66 3 MX80/M0#d 5.29259e-18
CL67 3#42 4#34 5.14954e-18
CL68 3#39 4#28 4.55016e-18
CL69 MX86/M0#d 4#35 4.31941e-18
CL70 3 4#24 3.59e-18
CL71 3#45 4#31 3.39798e-18
CL72 3#33 4#33 2.88087e-18
CL73 3#42 4#35 2.41702e-18
CL74 3#42 4#31 2.36634e-18
CL75 3#44 4#31 2.08231e-18
CL76 MX91/M0#g 4#35 1.66797e-18
CL77 MX100/M0#g 4#28 1.50882e-18
CL78 MX130/M0#g 4#29 1.44184e-18
CL79 3 4#33 1.43523e-18
CL80 3#44 4#33 6.75059e-17
CL81 3#48 4#35 6.65907e-17
CL82 3#40 4#30 1.33179e-17
CL83 MX86/M0#d MX91/M0#d 1.3099e-17
CL84 3#45 4#35 2.67016e-17
CL85 MX82/M0#d MX80/M0#d 1.22475e-17
CL86 3#44 4#34 2.49362e-17
CL87 3#45 4#34 6.52783e-17
CL88 MX91/M0#g MX91/M0#s 7.57466e-18
CL89 3#48 MX86/M0#s 6.59185e-18
CL90 3#48 VSS#23 6.54969e-18
CL91 3#39 VSS#33 6.43688e-18
CL92 MX86/M0#d VSS#23 6.01954e-18
CL93 3#40 VSS#34 5.72278e-18
CL94 MX104/M0#g VSS#10 5.4516e-18
CL95 MX86/M0#d VSS#34 5.3592e-18
CL96 MX128/M0#g VSS#2 4.95856e-18
CL97 3#38 VSS#33 4.04304e-18
CL98 MX104/M0#g VSS#34 4.01713e-18
CL99 MX128/M0#g VSS#33 3.995e-18
CL100 MX91/M0#g VSS#2 3.62964e-18
CL101 3#48 VSS#34 2.55758e-17
CL102 MX86/M0#d MX86/M0#s 1.89786e-17
RgL201 3 3#22 477.224640 $L=1.485 $W=0.15
RgL202 3#22 3#23 38.857975 $L=0.1645 $W=0.27
RgL203 3#23 3#24 29.410927 $L=0.1645 $W=0.27
RgL204 3#24 MX91/M0#g 213.731293 $L=0.665 $W=0.15
RgL205 MX104/M0#g 3#25 213.731293 $L=0.665 $W=0.15
RgL206 3#25 3#26 34.134449 $L=0.1645 $W=0.27
RgL207 MX100/M0#g 3#27 162.367142 $L=0.505 $W=0.15
RgL208 3#27 MX130/M0#g 423.743805 $L=1.465 $W=0.15
RgL209 3#27 3#28 205.761566 $L=1.145 $W=0.27
RgL210 MX128/M0#g 3#29 165.531296 $L=0.515 $W=0.15
RgL211 3#29 3#30 34.134449 $L=0.1645 $W=0.27
RfL212 3#32 3#33 14.305882 $L=0.19 $W=0.17
RfL213 3#34 3#36 3.764706 $L=0.05 $W=0.17
RfL214 3#37 3#38 4.550025 $L=0.0845 $W=0.4
RfL215 3#38 3#39 30.502117 $L=0.405 $W=0.17
RfL216 3#39 3#40 307.200012 $L=4.08 $W=0.17
RfL217 3#40 3#41 108.423531 $L=1.44 $W=0.17
RfL218 3#41 3#42 53.835293 $L=0.715 $W=0.17
ReL219 3#43 3#44 0.062137 $L=0.1445 $W=0.385
ReL220 3#44 3#45 0.636041 $L=1.17 $W=0.23
ReL221 3#45 3#46 0.064148 $L=0.1445 $W=0.345
ReL222 3#46 3#47 0.064148 $L=0.1445 $W=0.345
ReL223 3#47 3#48 0.266476 $L=0.49 $W=0.23
ReL224 3#48 3#49 0.062137 $L=0.1445 $W=0.385
RhL225 MX86/M0#d 3#36 15.000000 $A=0.0289
Rh_2_L226 MX82/M0#d 3#32 15.000000 $A=0.0289
RjL227 3#33 3#43 152.000000 $A=0.0289
RjL228 3#42 3#46 152.000000 $A=0.0289
RjL229 3#34 3#49 152.000000 $A=0.0289
RiL230 3#30 3#37 15.000000 $A=0.0289
RiL231 3#28 3#39 15.000000 $A=0.0289
RiL232 3#26 3#40 15.000000 $A=0.0289
RiL233 3#23 3#41 15.000000 $A=0.0289
RmwL234 MX80/M0#g 3 0.001000 $W=1000000
*
*|NET 9 1.47503e-15
*|I (MX129/M0#g MX129/M0 g X 0 10.4750 0.8000)
*|I (MX105/M0#g MX105/M0 g X 0 12.7150 0.8000)
*|I (MX92/M0#d MX92/M0 d X 0 11.8405 0.8000)
*|I (MX88/M0#g MX88/M0 g X 0 13.6650 0.8000)
*|I (MX133/M0#g MX133/M0 g X 0 13.6650 3.2400)
*|I (MX132/M0#g MX132/M0 g X 0 9.9550 3.2800)
*|I (MX103/M0#g MX103/M0 g X 0 12.7150 3.2800)
*|I (MX102/M0#d MX102/M0 d X 0 11.8405 3.2800)
*|S (9 9.9550 3.2800)
*|S (9#22 10.0150 1.6300)
*|S (9#23 10.0150 1.7945)
*|S (9#24 12.7150 1.6300)
*|S (9#25 12.7150 1.4650)
*|S (9#26 13.6650 1.7645)
*|S (9#27 13.5750 1.6300)
*|S (9#28 13.6650 1.4950)
*|S (9#30 11.9800 3.2800)
*|S (9#31 11.9800 3.0900)
*|S (9#32 13.5750 1.6300)
*|S (9#33 12.7150 1.6300)
*|S (9#34 11.9800 1.6300)
*|S (9#35 10.0150 1.6300)
*|S (9#36 11.9800 0.8500)
*|S (9#38 11.9800 0.8000)
*|S (9#39 11.9800 3.0900)
*|S (9#40 11.9800 0.8500)
CR1 MX102/M0#d VSS 2.01435e-18
CR2 MX103/M0#g VSS 9.78122e-19
CR3 MX133/M0#g VSS 5.52709e-19
CR4 MX88/M0#g VSS 1.49583e-17
CR5 MX92/M0#d VSS 1.0503e-17
CR6 MX105/M0#g VSS 1.49087e-17
CR7 MX129/M0#g VSS 1.75135e-17
CR8 9#40 VSS 3.63923e-17
CR9 9#39 VSS 6.2331e-18
CR10 9#35 VSS 3.68486e-17
CR11 9#34 VSS 5.03093e-17
CR12 9#33 VSS 2.01852e-17
CR13 9#32 VSS 1.61956e-17
CR14 9#31 VSS 3.35565e-18
CR15 9 VSS 1.08936e-17
CR16 MX129/M0#g 65#3 1.87598e-18
CR17 MX129/M0#g 65#7 1.0668e-18
CR18 9#40 65#6 9.56359e-19
CR19 9#35 65#6 9.10702e-19
CR20 MX92/M0#d 65#7 8.67823e-19
CR21 9#35 65#8 5.93907e-18
CR22 9#40 65#7 4.69386e-18
CR23 MX129/M0#g 65#6 6.51516e-18
CR24 9#35 62#7 1.9711e-18
CR25 MX129/M0#g 63 2.07908e-18
CR26 9#40 MX118/M0#s 1.77051e-18
CR27 9#40 63 1.3954e-18
CR28 MX129/M0#g 63#8 1.31082e-18
CR29 9 62#3 3.15198e-18
CR30 MX92/M0#d 63#4 3.55361e-18
CR31 9#34 63#4 1.8433e-17
CR32 9#40 63#7 1.52225e-17
CR33 9#40 63#4 3.99315e-18
CR34 9#35 63#7 7.78879e-18
CR35 9#35 63#8 1.37558e-17
CR36 MX129/M0#g MX129/M0#s 5.06762e-18
CR37 9#34 63#7 6.35641e-18
CR38 9#35 63 1.6958e-17
CR39 9 62 4.5787e-18
CR40 MX92/M0#d 63#7 2.8752e-18
CR41 MX133/M0#g 10#16 4.28626e-18
CR42 MX103/M0#g 10#12 3.73978e-18
CR43 MX103/M0#g 10#17 2.79362e-18
CR44 MX92/M0#d 10#20 2.52566e-18
CR45 9#40 10#17 2.32468e-18
CR46 9#39 10#17 1.86135e-18
CR47 MX88/M0#g MX105/M0#d 1.74357e-18
CR48 MX105/M0#g 10#20 1.73519e-18
CR49 9#34 10#20 1.50157e-18
CR50 MX103/M0#g 10#18 1.42671e-18
CR51 MX133/M0#g 10#12 1.41871e-18
CR52 MX133/M0#g MX103/M0#d 1.31014e-18
CR53 MX88/M0#g 10#16 1.1426e-18
CR54 9#40 MX105/M0#d 1.13452e-18
CR55 9#33 MX105/M0#d 6.59935e-18
CR56 9#32 10#17 3.06077e-17
CR57 9#39 10#19 1.74139e-17
CR58 9#33 10#19 3.11428e-17
CR59 9#32 10#16 2.07884e-17
CR60 9#39 10#18 2.39377e-17
CR61 9#40 10#20 2.39397e-17
CR62 MX105/M0#g MX105/M0#d 7.46971e-18
CR63 MX103/M0#g MX103/M0#d 5.623e-18
CR64 9#40 10#19 1.55502e-17
CR65 9#33 10#17 3.54572e-17
CR66 9#40 MX92/M0#s 7.2509e-18
CR67 9#40 MX105/M0#s 6.98824e-18
CR68 9#33 VSS#33 6.07868e-18
CR69 MX92/M0#d VSS#33 5.8236e-18
CR70 MX88/M0#g VSS#4 5.74683e-18
CR71 MX129/M0#g VSS#2 5.74683e-18
CR72 9#32 VSS#33 4.87553e-18
CR73 MX88/M0#g VSS#33 4.8201e-18
CR74 MX105/M0#g VSS#33 4.8201e-18
CR75 MX105/M0#g VSS#5 4.29097e-18
CR76 9#34 MX92/M0#s 3.95354e-18
CR77 MX92/M0#d VSS#6 3.51737e-18
CR78 9#35 VSS#33 2.78148e-18
CR79 9#34 VSS#33 9.87567e-18
CR80 MX92/M0#d MX92/M0#s 2.1054e-17
CR81 9#33 MX105/M0#s 1.30607e-17
CR82 9#40 VSS#33 2.07771e-17
CR83 MX105/M0#g MX105/M0#s 8.84857e-18
CR84 MX92/M0#d MX105/M0#s 1.72215e-17
CR85 MX88/M0#g MX93/M0#s 7.57466e-18
RgR354 MX129/M0#g 9#22 342.640717 $L=1.2 $W=0.15
RgR355 9#22 9#23 29.410927 $L=0.1645 $W=0.27
RgR356 9#23 9 477.224640 $L=1.485 $W=0.15
RgR357 MX103/M0#g 9#24 511.359100 $L=1.65 $W=0.15
RgR358 9#24 9#25 34.134449 $L=0.1645 $W=0.27
RgR359 9#25 MX105/M0#g 213.731293 $L=0.665 $W=0.15
RgR360 MX133/M0#g 9#26 474.003204 $L=1.475 $W=0.15
RgR361 9#26 9#27 31.545456 $L=0.1345 $W=0.33
RgR362 9#27 9#28 31.545456 $L=0.1345 $W=0.33
RgR363 9#28 MX88/M0#g 223.363174 $L=0.695 $W=0.15
RfR364 9#30 9#31 14.305882 $L=0.19 $W=0.17
RfR365 9#32 9#33 64.752945 $L=0.86 $W=0.17
RfR366 9#33 9#34 54.851227 $L=0.735 $W=0.17
RfR367 9#34 9#35 147.462997 $L=1.965 $W=0.17
RfR368 9#34 9#36 53.493027 $L=0.78 $W=0.17
RfR369 9#36 9#38 3.764706 $L=0.05 $W=0.17
ReR370 9#39 9#40 1.217391 $L=2.24 $W=0.23
RhR371 MX92/M0#d 9#38 15.000000 $A=0.0289
Rh_2_R372 MX102/M0#d 9#30 15.000000 $A=0.0289
RjR373 9#31 9#39 152.000000 $A=0.0289
RjR374 9#36 9#40 152.000000 $A=0.0289
RiR375 9#27 9#32 15.000000 $A=0.0289
RiR376 9#24 9#33 15.000000 $A=0.0289
RiR377 9#22 9#35 15.000000 $A=0.0289
RmwR378 MX132/M0#g 9 0.001000 $W=1000000
*
*|NET 6 2.4406e-15
*|I (MX117/M0#g MX117/M0 g X 0 6.3350 0.8000)
*|I (MX104/M0#s MX104/M0 s X 0 5.0305 0.8000)
*|I (MX98/M0#d MX98/M0 d X 0 8.2205 0.8000)
*|I (MX130/M0#d MX130/M0 d X 0 8.1305 3.2800)
*|I (MX114/M0#g MX114/M0 g X 0 6.7650 3.2800)
*|I (MX101/M0#d MX101/M0 d X 0 5.0305 3.2800)
*|S (6 6.7650 3.2800)
*|S (6#8 6.7050 2.1345)
*|S (6#9 6.7050 1.9700)
*|S (6#10 6.5700 1.8800)
*|S (6#12 5.1700 3.2800)
*|S (6#13 5.1700 3.0900)
*|S (6#14 5.1700 0.8500)
*|S (6#16 5.1700 0.8000)
*|S (6#18 8.2700 3.2800)
*|S (6#19 8.2700 3.0900)
*|S (6#20 8.3600 0.8500)
*|S (6#22 8.3600 0.8000)
*|S (6#23 8.3600 1.9700)
*|S (6#24 6.7050 1.9700)
*|S (6#25 5.1350 1.9700)
*|S (6#26 5.1700 3.0900)
*|S (6#27 5.1525 2.9450)
*|S (6#28 5.1350 1.9700)
*|S (6#29 5.1525 0.9945)
*|S (6#30 5.1700 0.8500)
*|S (6#31 8.3600 1.9700)
*|S (6#32 8.3150 2.9450)
*|S (6#33 8.2700 3.0900)
*|S (6#34 8.3600 0.8500)
CO1 MX101/M0#d VSS 2.35091e-18
CO2 MX130/M0#d VSS 3.22584e-18
CO3 MX98/M0#d VSS 4.8869e-18
CO4 MX104/M0#s VSS 7.86013e-18
CO5 MX117/M0#g VSS 1.57432e-17
CO6 6#34 VSS 1.67448e-17
CO7 6#33 VSS 8.21453e-18
CO8 6#31 VSS 1.08871e-17
CO9 6#29 VSS 8.2426e-18
CO10 6#28 VSS 2.53974e-18
CO11 6#27 VSS 8.351e-18
CO12 6#24 VSS 3.64373e-17
CO13 6#25 VSS 2.05958e-17
CO14 6#13 VSS 3.04165e-18
CO15 6#19 VSS 2.59201e-18
CO16 6#23 VSS 3.31177e-17
CO17 6 VSS 1.75385e-17
CO18 6#29 64#3 1.97235e-18
CO19 6#24 64#8 1.75493e-18
CO20 6#24 64#7 1.75162e-18
CO21 6#34 64#6 1.69586e-18
CO22 MX117/M0#g 64#6 1.20874e-18
CO23 6#29 64#8 7.09867e-18
CO24 MX117/M0#g 64#3 6.22695e-18
CO25 6#34 64#7 4.38298e-18
CO26 MX104/M0#s 64#8 2.07259e-18
CO27 MX117/M0#g 64#8 2.56436e-18
CO28 6#33 52 6.84986e-18
CO29 6#19 52 1.1521e-17
CO30 MX98/M0#d 54 1.93352e-17
CO31 MX130/M0#d 52 1.6111e-17
CO32 6#34 54 6.9423e-18
CO33 MX130/M0#d MX100/M0#s 8.10719e-18
CO34 6#19 7#16 6.58712e-18
CO35 MX117/M0#g MX127/M0#d 6.22276e-18
CO36 6#23 7#29 6.16182e-18
CO37 6#34 MX89/M0#s 4.58429e-18
CO38 6 MX114/M0#d 4.58144e-18
CO39 6#33 7#16 3.93745e-18
CO40 MX98/M0#d 7#30 3.62335e-18
CO41 6 7#13 3.15253e-18
CO42 MX117/M0#g 7#22 2.9046e-18
CO43 6#19 7#28 2.19426e-18
CO44 6#29 7#22 1.90632e-18
CO45 6#34 7#22 1.55533e-18
CO46 6#13 7#26 1.52382e-18
CO47 6#33 MX100/M0#s 1.4286e-18
CO48 MX98/M0#d MX109/M0#g 1.41134e-18
CO49 6 7#26 1.36679e-18
CO50 6#34 MX127/M0#d 1.19948e-18
CO51 MX98/M0#d MX89/M0#s 1.33161e-17
CO52 6#31 7#28 2.26687e-17
CO53 6#34 7#29 2.38622e-17
CO54 6#24 7#27 3.30861e-17
CO55 6#33 7#28 5.43823e-17
CO56 6#31 7#29 5.80023e-17
CO57 MX98/M0#d 7#20 2.13458e-17
CO58 6#34 7#30 2.35793e-17
CO59 6#34 7#20 1.62572e-17
CO60 6#34 7#21 1.94918e-17
CO61 MX98/M0#d VSS#9 7.24683e-18
CO62 6#29 MX108/M0#s 6.39903e-18
CO63 MX104/M0#s VSS#10 6.01954e-18
CO64 6#29 VSS#10 5.78617e-18
CO65 MX104/M0#s VSS#34 5.476e-18
CO66 MX98/M0#d VSS#33 5.3592e-18
CO67 6#34 VSS#9 4.59453e-18
CO68 6#34 VSS#33 2.07771e-17
CO69 6#29 VSS#34 2.24698e-17
CO70 MX104/M0#s MX108/M0#s 1.3596e-17
RgO281 6 6#8 367.971313 $L=1.145 $W=0.15
RgO282 6#8 6#9 30.460598 $L=0.1645 $W=0.27
RgO283 6#9 6#10 21.669903 $L=0.1345 $W=0.3
RgO284 6#10 MX117/M0#g 401.324219 $L=1.315 $W=0.15
RfO285 6#12 6#13 14.305882 $L=0.19 $W=0.17
RfO286 6#14 6#16 3.764706 $L=0.05 $W=0.17
RfO287 6#18 6#19 14.305882 $L=0.19 $W=0.17
RfO288 6#20 6#22 3.764706 $L=0.05 $W=0.17
RfO289 6#23 6#24 124.611771 $L=1.655 $W=0.17
RfO290 6#24 6#25 118.211769 $L=1.57 $W=0.17
ReO291 6#26 6#27 0.068278 $L=0.1445 $W=0.265
ReO292 6#27 6#28 0.482944 $L=0.975 $W=0.23
ReO293 6#28 6#29 0.530009 $L=0.975 $W=0.23
ReO294 6#29 6#30 0.070796 $L=0.1445 $W=0.265
ReO295 6#31 6#32 0.529989 $L=0.975 $W=0.23
ReO296 6#32 6#33 0.065684 $L=0.1445 $W=0.32
ReO297 6#31 6#34 0.608696 $L=1.12 $W=0.23
RhO298 MX104/M0#s 6#16 15.000000 $A=0.0289
RhO299 MX98/M0#d 6#22 15.000000 $A=0.0289
Rh_2_O300 MX101/M0#d 6#12 15.000000 $A=0.0289
Rh_2_O301 MX130/M0#d 6#18 15.000000 $A=0.0289
RjO302 6#13 6#26 152.000000 $A=0.0289
RjO303 6#25 6#28 152.000000 $A=0.0289
RjO304 6#14 6#30 152.000000 $A=0.0289
RjO305 6#23 6#31 152.000000 $A=0.0289
RjO306 6#19 6#33 152.000000 $A=0.0289
RjO307 6#20 6#34 152.000000 $A=0.0289