*
*|DSPF 1.5
*
*|DATE "Fri Feb 28 12:10:16 2025"
*|VENDOR "Cadence Design Systems"
*|PROGRAM "Cadence Quantus Extraction"
*|VERSION "22.1.0-p089 Linux 64 bit - (Thu Jan 19 11:47:08 PST 2023)"
*|DESIGN "SDFFX4_LP"
*|DIVIDER /
*|DELIMITER #
*|DeviceFingerDelim "@"
*|BUSBIT []
*|GLOBAL_TEMPERATURE 25
*|OPERATING_TEMPERATURE 25
** QRC_TECH_DIR /vols/wfo_devel/projects/reference_SKY130/tech/sky130_release_0.0.4/quantus/extraction/typical 
** HIERARCHICAL_SPLIT_PINS_DELIMITER '%'
** caps2d version: 10
*
.SUBCKT  SDFFX4_LP CK D Q QN SE SI VDD VSS
*
*Net Section
*
*|GROUND_NET VSS
*
*|NET SE 7.48561e-16
*|P (SE X 0 0.9350 1.6500)
*|I (MX92/M0#g MX92/M0 g X 0 1.7650 0.8000)
*|I (MX76/M0#g MX76/M0 g X 0 0.4750 0.8000)
*|I (MX87/M0#g MX87/M0 g X 0 1.3350 3.2800)
*|I (MX71/M0#g MX71/M0 g X 0 0.4750 3.2800)
*|S (SE#15 0.4150 2.1345)
*|S (SE#16 0.4150 1.9700)
*|S (SE#17 0.4150 1.8050)
*|S (SE#18 1.7650 1.9700)
*|S (SE#19 1.4700 1.9700)
*|S (SE#20 1.4700 1.9700)
*|S (SE#21 1.3095 1.9050)
*|S (SE#22 1.1400 1.9050)
*|S (SE#23 0.9200 1.8400)
*|S (SE#24 0.6595 1.9050)
*|S (SE#25 0.4150 1.9700)
*|S (SE#26 0.9200 1.8400)
CE1 MX71/M0#g VSS 5.97319e-19
CE2 MX87/M0#g VSS 4.05118e-18
CE3 MX76/M0#g VSS 1.56399e-17
CE4 MX92/M0#g VSS 2.43603e-17
CE5 SE#25 VSS 2.21806e-17
CE6 SE#22 VSS 5.56045e-18
CE7 SE#21 VSS 1.53201e-17
CE8 SE#23 VSS 6.76326e-18
CE9 SE VSS 6.62982e-18
CE10 MX92/M0#g 37 1.28937e-18
CE11 MX71/M0#g 39 2.50706e-18
CE12 MX76/M0#g 37 1.99359e-18
CE13 SE 37 1.9069e-17
CE14 MX87/M0#g 39 7.70836e-18
CE15 MX87/M0#g 2#3 3.15253e-18
CE16 MX87/M0#g 2#14 2.39864e-18
CE17 SE MX92/M0#d 2.29139e-18
CE18 MX87/M0#g 2 4.59009e-18
CE19 SE 2#15 7.58041e-17
CE20 SE 2#14 4.64714e-18
CE21 SE#21 2#15 1.49835e-17
CE22 SE#21 2#14 1.39193e-17
CE23 MX92/M0#g MX92/M0#d 6.2356e-18
CE24 SE MX76/M0#d 3.46655e-18
CE25 SE#21 MX91/M0#g 3.33477e-18
CE26 MX92/M0#g 1#20 2.28162e-18
CE27 MX76/M0#g 1#25 1.95214e-18
CE28 MX71/M0#g 1#22 1.50468e-18
CE29 SE#23 1#19 1.06551e-18
CE30 SE 1#18 2.27864e-17
CE31 MX76/M0#g MX76/M0#d 8.12962e-18
CE32 SE 1#19 1.04312e-17
CE33 MX71/M0#g 1#14 4.095e-18
CE34 SE 1#25 2.13889e-17
CE35 SE#22 1#18 7.01743e-18
CE36 SE 1#24 4.99927e-17
CE37 SE 1#23 4.32924e-18
CE38 MX71/M0#g MX71/M0#d 6.02125e-18
CE39 SE#23 1#18 6.73456e-18
CE40 SE#21 1#18 1.13406e-17
CE41 SE#21 1#20 9.77395e-18
CE42 SE#25 1#19 1.93364e-17
CE43 SE#25 1#21 1.5935e-17
CE44 SE#25 1#24 1.86353e-17
CE45 SE#25 1#23 1.49951e-17
CE46 MX71/M0#g 1#21 6.92662e-18
CE47 MX76/M0#g 1#19 7.10033e-18
CE48 MX87/M0#g 1#20 9.27672e-18
CE49 SE VSS#22 3.66027e-18
CE50 MX76/M0#g VSS#22 3.64084e-18
CE51 SE#25 VSS#41 2.18366e-18
CE52 SE VSS#41 2.20091e-17
CE53 MX92/M0#g VSS#41 4.8201e-18
CE54 MX92/M0#g VSS#21 5.74683e-18
CE55 MX76/M0#g VSS#41 4.8201e-18
CE56 SE MX76/M0#s 1.0795e-17
CE57 MX76/M0#g MX76/M0#s 8.41205e-18
CE58 MX71/M0#g VDD#36 3.77064e-18
CE59 MX87/M0#g VDD#36 5.04997e-18
CE60 MX87/M0#g VDD 1.60341e-17
CE61 MX71/M0#g MX99/M0#s 1.01682e-17
CE62 MX71/M0#g VDD 1.39295e-17
CE63 MX87/M0#g VDD#41 5.21861e-18
CE64 MX71/M0#g VDD#41 5.21861e-18
CE65 SE#21 SI#11 1.19905e-17
CE66 MX92/M0#g SI#11 2.96733e-18
RgE59 MX71/M0#g SE#15 367.971313 $L=1.145 $W=0.15
RgE60 SE#15 SE#16 38.857975 $L=0.1645 $W=0.27
RgE61 SE#16 SE#17 29.410927 $L=0.1645 $W=0.27
RgE62 SE#17 MX76/M0#g 322.984650 $L=1.005 $W=0.15
RgE63 MX92/M0#g SE#18 347.526733 $L=1.17 $W=0.15
RgE64 SE#18 SE#19 54.220818 $L=0.295 $W=0.27
RgE65 SE#19 MX87/M0#g 420.946655 $L=1.31 $W=0.15
RfE66 SE#20 SE#21 12.057726 $L=0.16 $W=0.17
RfE67 SE#21 SE#22 13.768684 $L=0.169 $W=0.1745
RfE68 SE#22 SE#23 16.575373 $L=0.22 $W=0.17
RfE69 SE#23 SE#24 19.587137 $L=0.26 $W=0.17
RfE70 SE#24 SE#25 11.793457 $L=0.2445 $W=0.3
ReE71 SE SE#26 0.091346 $L=0.19 $W=0.26
RjE72 SE#23 SE#26 152.000000 $A=0.0289
RiE73 SE#19 SE#20 15.000000 $A=0.0289
RiE74 SE#16 SE#25 15.000000 $A=0.0289
*
*|NET D 5.43338e-16
*|P (D X 0 0.9350 2.7450)
*|I (MX67/M0#g MX67/M0 g X 0 0.9050 0.8000)
*|I (MX99/M0#g MX99/M0 g X 0 0.9050 3.2800)
*|S (D#8 0.9050 2.3100)
*|S (D#9 0.9050 2.1450)
*|S (D#10 0.9200 2.3100)
*|S (D#11 0.9050 2.3100)
*|S (D#12 0.9200 2.3100)
CB1 MX99/M0#g VSS 3.70224e-18
CB2 MX67/M0#g VSS 2.54397e-17
CB3 D#11 VSS 6.24504e-18
CB4 D VSS 1.95477e-18
CB5 MX99/M0#g 39 7.7463e-18
CB6 D 39 2.47921e-17
CB7 D 2#3 1.89657e-18
CB8 D 2 1.69088e-18
CB9 MX67/M0#g MX92/M0#d 1.31748e-18
CB10 D#11 2#14 1.28356e-17
CB11 D 2#14 5.05578e-17
CB12 D#12 2#14 3.10897e-17
CB13 D#12 1#20 2.40416e-18
CB14 MX67/M0#g MX76/M0#d 1.54951e-18
CB15 MX99/M0#g 1#21 4.4114e-18
CB16 D 1#20 6.04227e-18
CB17 D#11 1#23 7.96606e-18
CB18 D#11 1#21 2.63815e-17
CB19 D#12 1#23 2.93152e-17
CB20 D#11 1#20 2.84674e-17
CB21 D#12 1#21 5.00056e-18
CB22 D MX71/M0#d 3.12514e-18
CB23 D 1#21 1.46573e-17
CB24 D 1#14 2.8936e-18
CB25 D 1#23 1.48731e-17
CB26 D 1#22 2.34256e-17
CB27 MX67/M0#g 1#18 6.95097e-18
CB28 MX67/M0#g MX76/M0#s 7.17494e-18
CB29 MX67/M0#g VSS#41 2.9814e-18
CB30 MX67/M0#g VSS#22 4.87612e-18
CB31 D VDD 2.16617e-18
CB32 D MX99/M0#s 2.1183e-17
CB33 MX99/M0#g VDD#41 3.12331e-18
CB34 D#12 VDD 4.44616e-18
CB35 D VDD#41 2.18194e-17
CB36 MX99/M0#g VDD 1.43761e-17
CB37 MX99/M0#g MX99/M0#s 8.68788e-18
CB38 MX99/M0#g VDD#36 3.77064e-18
CB39 D#11 VDD 2.01074e-17
CB40 D VDD#36 3.31207e-18
CB41 D#11 SE#23 1.23474e-17
CB42 D#11 SE#25 4.3116e-18
CB43 D#12 SE 3.45785e-17
CB44 D#12 SE#23 3.95127e-18
CB45 D#11 SE#22 1.44427e-17
CB46 D#11 SE 3.67441e-18
CB47 D#11 SE#21 5.27518e-18
RgB8 MX99/M0#g D#8 292.852417 $L=0.97 $W=0.15
RgB9 D#8 D#9 34.134449 $L=0.1645 $W=0.27
RgB10 D#9 MX67/M0#g 432.237946 $L=1.345 $W=0.15
RfB11 D#10 D#11 1.129412 $L=0.015 $W=0.17
ReB12 D D#12 0.209135 $L=0.435 $W=0.26
RjB13 D#10 D#12 152.000000 $A=0.0289
RiB14 D#8 D#11 15.000000 $A=0.0289
*
*|NET VSS 3.8623e-15
*|P (VSS X 0 4.8250 0.0050)
*|I (MX107/M0#s MX107/M0 s X 0 9.3295 0.8000)
*|I (MX107/M1#d MX107/M1 d X 0 9.9105 0.8000)
*|I (MX107/M2#s MX107/M2 s X 0 10.1895 0.8000)
*|I (MX107/M3#d MX107/M3 d X 0 10.7705 0.8000)
*|I (MX105/M0#s MX105/M0 s X 0 11.0495 0.8000)
*|I (MX105/M1#d MX105/M1 d X 0 11.6305 0.8000)
*|I (MX105/M2#s MX105/M2 s X 0 11.9095 0.8000)
*|I (MX105/M3#d MX105/M3 d X 0 12.4905 0.8000)
*|I (MX90/M0#s MX90/M0 s X 0 7.5195 0.8000)
*|I (MX90/M1#d MX90/M1 d X 0 8.1005 0.8000)
*|I (MX84/M0#s MX84/M0 s X 0 7.1805 0.8000)
*|I (MX80/M0#s MX80/M0 s X 0 4.7895 0.8000)
*|I (MX79/M0#s MX79/M0 s X 0 2.5495 0.8000)
*|I (MX78/M0#s MX78/M0 s X 0 5.7395 0.8000)
*|I (MX77/M0#s MX77/M0 s X 0 9.0505 0.8000)
*|I (MX76/M0#s MX76/M0 s X 0 0.5505 0.8000)
*|I (MX75/M0#s MX75/M0 s X 0 4.5105 0.8000)
*|I (MX74/M0#s MX74/M0 s X 0 2.2705 0.8000)
*|I (MX67/M0#s MX67/M0 s X 0 0.8295 0.8000)
*|S (VSS#1 13.3395 0.0000)
*|S (VSS#2 12.6300 0.0000)
*|S (VSS#3 11.7700 0.0000)
*|S (VSS#4 10.9100 0.0000)
*|S (VSS#5 10.1200 0.0000)
*|S (VSS#6 10.1200 0.0000)
*|S (VSS#9 12.6300 0.8000)
*|S (VSS#11 11.7700 0.8000)
*|S (VSS#13 10.9100 0.8000)
*|S (VSS#14 9.1900 0.0000)
*|S (VSS#15 8.2400 0.0000)
*|S (VSS#16 7.3800 0.0000)
*|S (VSS#17 5.6000 0.0000)
*|S (VSS#18 4.6500 0.0000)
*|S (VSS#19 3.6800 0.0000)
*|S (VSS#21 2.4100 0.0000)
*|S (VSS#22 0.6900 0.0000)
*|S (VSS#23 0.0000 0.0000)
*|S (VSS#25 10.0500 0.8000)
*|S (VSS#27 9.1900 0.8000)
*|S (VSS#29 8.2400 0.8000)
*|S (VSS#31 7.3800 0.8000)
*|S (VSS#33 5.6000 0.8000)
*|S (VSS#35 4.6500 0.8000)
*|S (VSS#37 2.4100 0.8000)
*|S (VSS#39 0.6900 0.8000)
*|S (VSS#40 10.1200 0.0000)
*|S (VSS#41 3.6800 0.0000)
RfH131 VSS#1 VSS#2 36.051208 $L=0.7095 $W=0.25
RfH132 VSS#2 VSS#3 43.481621 $L=0.86 $W=0.25
RfH133 VSS#3 VSS#4 43.481621 $L=0.86 $W=0.25
RfH134 VSS#4 VSS#5 40.172813 $L=0.79 $W=0.25
RfH135 VSS#2 VSS#9 53.627445 $L=0.8 $W=0.17
RfH136 VSS#3 VSS#11 53.627445 $L=0.8 $W=0.17
RfH137 VSS#4 VSS#13 53.627445 $L=0.8 $W=0.17
RfH138 VSS#5 VSS#14 47.340813 $L=0.93 $W=0.25
RfH139 VSS#14 VSS#15 48.089619 $L=0.95 $W=0.25
RfH140 VSS#15 VSS#16 43.481621 $L=0.86 $W=0.25
RfH141 VSS#16 VSS#17 90.585625 $L=1.78 $W=0.25
RfH142 VSS#17 VSS#18 48.089619 $L=0.95 $W=0.25
RfH143 VSS#18 VSS#19 49.388809 $L=0.97 $W=0.25
RfH144 VSS#19 VSS#21 64.748810 $L=1.27 $W=0.25
RfH145 VSS#21 VSS#22 87.513618 $L=1.72 $W=0.25
RfH146 VSS#22 VSS#23 35.052811 $L=0.69 $W=0.25
RfH147 VSS#5 VSS#25 57.223530 $L=0.8 $W=0.17
RfH148 VSS#14 VSS#27 53.627445 $L=0.8 $W=0.17
RfH149 VSS#15 VSS#29 53.627445 $L=0.8 $W=0.17
RfH150 VSS#16 VSS#31 53.627445 $L=0.8 $W=0.17
RfH151 VSS#17 VSS#33 53.627445 $L=0.8 $W=0.17
RfH152 VSS#18 VSS#35 53.627445 $L=0.8 $W=0.17
RfH153 VSS#21 VSS#37 53.627445 $L=0.8 $W=0.17
RfH154 VSS#22 VSS#39 53.627445 $L=0.8 $W=0.17
ReH155 VSS#40 VSS 1.654688 $L=5.295 $W=0.4
ReH156 VSS VSS#41 0.357812 $L=1.145 $W=0.4
RhH157 MX105/M3#d VSS#9 15.000000 $A=0.0289
RhH158 MX105/M1#d VSS#11 15.000000 $A=0.0289
RhH159 MX107/M3#d VSS#13 15.000000 $A=0.0289
RhH160 MX107/M1#d VSS#25 15.000000 $A=0.0289
RhH161 MX107/M0#s VSS#27 15.000000 $A=0.0289
RhH162 MX90/M1#d VSS#29 15.000000 $A=0.0289
RhH163 MX90/M0#s VSS#31 15.000000 $A=0.0289
RhH164 MX78/M0#s VSS#33 15.000000 $A=0.0289
RhH165 MX80/M0#s VSS#35 15.000000 $A=0.0289
RhH166 MX79/M0#s VSS#37 15.000000 $A=0.0289
RhH167 MX76/M0#s VSS#39 15.000000 $A=0.0289
Rh_3_H168 VSS#6 VSS#5 1.153846 $A=0.3757
Rh_3_H169 VSS#6 VSS#19 1.000000 $A=0.4335
RjH170 VSS#5 VSS#40 11.692307 $A=0.3757
RjH171 VSS#19 VSS#41 10.133333 $A=0.4335
RmwH172 MX107/M2#s MX107/M1#d 0.001000 $W=1000000
RmwH173 MX105/M0#s MX107/M3#d 0.001000 $W=1000000
RmwH174 MX105/M2#s MX105/M1#d 0.001000 $W=1000000
RmwH175 MX84/M0#s MX90/M0#s 0.001000 $W=1000000
RmwH176 MX77/M0#s MX107/M0#s 0.001000 $W=1000000
RmwH177 MX75/M0#s MX80/M0#s 0.001000 $W=1000000
RmwH178 MX74/M0#s MX79/M0#s 0.001000 $W=1000000
RmwH179 MX67/M0#s MX76/M0#s 0.001000 $W=1000000
*
*|NET VDD 3.45487e-15
*|P (VDD X 0 4.8250 4.1450)
*|I (MX112/M0#s MX112/M0 s X 0 12.4905 3.2400)
*|I (MX112/M1#d MX112/M1 d X 0 11.9095 3.2400)
*|I (MX112/M2#s MX112/M2 s X 0 11.6305 3.2400)
*|I (MX112/M3#d MX112/M3 d X 0 11.0495 3.2400)
*|I (MX110/M0#s MX110/M0 s X 0 7.5195 3.2800)
*|I (MX110/M1#d MX110/M1 d X 0 8.1005 3.2800)
*|I (MX106/M0#s MX106/M0 s X 0 9.3295 3.2400)
*|I (MX106/M1#d MX106/M1 d X 0 9.9105 3.2400)
*|I (MX106/M2#s MX106/M2 s X 0 10.1895 3.2400)
*|I (MX106/M3#d MX106/M3 d X 0 10.7705 3.2400)
*|I (MX104/M0#s MX104/M0 s X 0 5.7395 3.2800)
*|I (MX99/M0#s MX99/M0 s X 0 0.8295 3.2800)
*|I (MX85/M0#s MX85/M0 s X 0 7.1805 3.2800)
*|I (MX83/M0#s MX83/M0 s X 0 4.5105 3.2800)
*|I (MX82/M0#s MX82/M0 s X 0 2.2705 3.2800)
*|I (MX72/M0#s MX72/M0 s X 0 9.0505 3.2400)
*|I (MX71/M0#s MX71/M0 s X 0 0.5505 3.2800)
*|I (MX70/M0#s MX70/M0 s X 0 4.7895 3.2800)
*|I (MX69/M0#s MX69/M0 s X 0 2.5495 3.2800)
*|S (VDD#1 13.3395 4.1400)
*|S (VDD#2 12.6300 4.1400)
*|S (VDD#3 11.7700 4.1400)
*|S (VDD#4 10.9100 4.1400)
*|S (VDD#5 10.1200 4.1400)
*|S (VDD#6 10.1200 4.1400)
*|S (VDD#9 12.6300 3.2400)
*|S (VDD#11 11.7700 3.2400)
*|S (VDD#13 10.9100 3.2400)
*|S (VDD#15 10.0500 3.2400)
*|S (VDD#16 9.1900 4.1400)
*|S (VDD#18 9.1900 3.2400)
*|S (VDD#19 8.2400 4.1400)
*|S (VDD#21 8.2400 3.2800)
*|S (VDD#22 7.3800 4.1400)
*|S (VDD#24 7.3800 3.2800)
*|S (VDD#25 5.6000 4.1400)
*|S (VDD#27 5.6000 3.2800)
*|S (VDD#28 4.6500 4.1400)
*|S (VDD#30 4.6500 3.2800)
*|S (VDD#31 3.6800 4.1400)
*|S (VDD#33 2.4100 4.1400)
*|S (VDD#35 2.4100 3.2800)
*|S (VDD#36 0.6900 4.1400)
*|S (VDD#38 0.6900 3.2800)
*|S (VDD#39 0.0000 4.1400)
*|S (VDD#40 10.1200 4.1400)
*|S (VDD#41 3.6800 4.1400)
CG1 MX82/M0#s VSS 6.72919e-19
CG2 MX83/M0#s VSS 2.88007e-18
CG3 MX99/M0#s VSS 1.06292e-18
CG4 MX104/M0#s VSS 2.08752e-18
CG5 MX106/M1#d VSS 5.06661e-18
CG6 MX106/M0#s VSS 2.0054e-18
CG7 MX110/M0#s VSS 1.49956e-18
CG8 MX112/M3#d VSS 3.76727e-18
CG9 MX112/M1#d VSS 2.0054e-18
CG10 VDD#41 VSS 1.55603e-17
CG11 VDD#40 VSS 3.38457e-18
CG12 VDD#36 VSS 6.38198e-18
CG13 VDD#33 VSS 1.46792e-18
CG14 VDD#28 VSS 1.1597e-18
CG15 VDD#25 VSS 3.49234e-18
CG16 VDD#22 VSS 2.2587e-18
CG17 VDD#4 VSS 9.7771e-19
CG18 VDD#3 VSS 3.33223e-18
CG19 VDD#2 VSS 2.42043e-18
CG20 VDD#39 VSS 8.36523e-19
CG21 VDD#6 VSS 3.33223e-18
CG22 VDD VSS 1.03478e-17
CG23 VDD 51 4.14467e-18
CG24 MX110/M0#s 51 2.83191e-17
CG25 VDD#22 51 6.06011e-18
CG26 VDD#41 51 6.45508e-18
CG27 VDD#33 43 6.13168e-18
CG28 VDD#6 47 2.85748e-18
CG29 VDD#41 43 4.77261e-18
CG30 VDD 47 3.6742e-18
CG31 VDD 43 6.62178e-18
CG32 VDD 39 3.17018e-18
CG33 VDD#41 39 7.32447e-18
CG34 VDD#36 39 6.06011e-18
CG35 MX82/M0#s 43 2.88854e-17
CG36 MX83/M0#s 47 3.1145e-17
CG37 MX99/M0#s 39 2.87719e-17
CG38 VDD#28 47 3.25039e-18
CG39 VDD#41 47 4.46871e-18
CG40 MX106/M0#s 33#41 7.06104e-18
CG41 VDD#40 33#40 6.688e-18
CG42 VDD#40 33#36 5.73635e-18
CG43 VDD#40 33 5.48428e-18
CG44 MX112/M1#d 33#40 4.92444e-18
CG45 VDD#40 33#41 4.92306e-18
CG46 VDD#4 33 4.34129e-18
CG47 VDD#3 MX112/M2#g 4.34129e-18
CG48 VDD#3 MX112/M1#g 4.34129e-18
CG49 VDD#2 MX112/M0#g 4.34129e-18
CG50 VDD 33#43 4.05084e-18
CG51 VDD#40 MX112/M2#g 3.5465e-18
CG52 VDD#40 MX112/M1#g 3.5465e-18
CG53 VDD#16 33#36 3.49353e-18
CG54 VDD#16 33#42 3.26287e-18
CG55 MX112/M1#d MX112/M0#g 3.18655e-18
CG56 VDD#40 MX112/M0#g 3.12044e-18
CG57 VDD#19 33#42 2.20519e-18
CG58 MX112/M0#s MX112/M1#g 2.03455e-18
CG59 VDD MX112/M2#g 9.69429e-18
CG60 MX106/M0#s 33#42 9.98129e-18
CG61 VDD MX112/M1#g 9.69429e-18
CG62 MX112/M0#s MX112/M0#g 1.26453e-17
CG63 VDD MX112/M0#g 1.45819e-17
CG64 VDD#40 33#42 2.11473e-17
CG65 MX106/M0#s 33#36 3.223e-17
CG66 VDD 33#36 1.79459e-17
CG67 VDD 33 1.19603e-17
CG68 MX112/M1#d MX112/M1#g 9.66683e-18
CG69 VDD 33#42 1.38982e-17
CG70 MX110/M1#d 33#42 9.82115e-18
CG71 MX112/M1#d MX112/M2#g 9.66683e-18
CG72 MX112/M3#d 33 9.66683e-18
CG73 MX110/M1#d 33#36 2.42311e-17
CG74 MX112/M3#d 33#40 8.1612e-18
CG75 MX110/M0#s 8 8.42278e-18
CG76 MX110/M1#d 8#59 8.09393e-18
CG77 VDD#40 8#52 6.2162e-18
CG78 VDD#22 8 5.54727e-18
CG79 VDD#40 MX72/M0#g 5.48428e-18
CG80 VDD#40 MX106/M0#g 5.48428e-18
CG81 MX110/M1#d 8#54 4.74977e-18
CG82 VDD#16 MX72/M0#g 4.34129e-18
CG83 VDD#16 MX106/M0#g 4.34129e-18
CG84 VDD#4 MX106/M3#g 4.34129e-18
CG85 VDD#6 MX106/M2#g 4.34129e-18
CG86 VDD#6 MX106/M1#g 4.34129e-18
CG87 VDD#40 MX106/M2#g 3.5465e-18
CG88 VDD#40 MX106/M1#g 3.5465e-18
CG89 MX110/M1#d MX72/M0#g 3.4782e-18
CG90 VDD#40 MX106/M3#g 3.39892e-18
CG91 VDD#40 8 2.71368e-18
CG92 VDD#22 8#52 2.44428e-18
CG93 VDD#19 8#52 2.42043e-18
CG94 VDD#40 8#54 2.31176e-18
CG95 VDD#22 8#59 2.08806e-18
CG96 VDD#19 8#59 2.07968e-18
CG97 MX106/M1#d MX106/M3#g 2.0054e-18
CG98 VDD MX72/M0#g 1.19603e-17
CG99 MX110/M0#s 8#59 8.97192e-18
CG100 VDD 8#52 1.29978e-17
CG101 MX112/M3#d MX106/M3#g 9.66683e-18
CG102 MX110/M1#d 8#52 3.02708e-17
CG103 VDD#40 8#59 1.72271e-17
CG104 VDD 8 1.29978e-17
CG105 VDD 8#59 1.11916e-17
CG106 VDD MX106/M3#g 1.36455e-17
CG107 MX106/M0#s MX72/M0#g 1.02324e-17
CG108 VDD MX106/M2#g 9.69429e-18
CG109 MX106/M1#d MX106/M2#g 9.66683e-18
CG110 VDD MX106/M1#g 9.69429e-18
CG111 MX106/M1#d MX106/M1#g 9.66683e-18
CG112 MX110/M0#s 8#52 3.15404e-17
CG113 VDD MX106/M0#g 1.19603e-17
CG114 MX106/M0#s MX106/M0#g 9.66683e-18
CG115 VDD#41 MX89/M0#d 6.00165e-18
CG116 VDD#40 7#27 5.53615e-18
CG117 VDD#40 MX110/M1#g 5.21861e-18
CG118 VDD#40 7 5.21861e-18
CG119 VDD#25 MX89/M0#d 4.35387e-18
CG120 VDD#22 7 4.31255e-18
CG121 VDD#19 MX110/M1#g 4.31255e-18
CG122 VDD 7#29 4.09766e-18
CG123 MX110/M1#d 7#27 3.65788e-18
CG124 VDD 7#23 3.26881e-18
CG125 VDD#22 MX89/M0#d 2.91827e-18
CG126 VDD#41 7#28 2.03846e-18
CG127 MX110/M0#s MX110/M1#g 1.88606e-18
CG128 MX110/M1#d 7 1.80838e-18
CG129 VDD#25 7#29 1.80775e-18
CG130 MX110/M0#s 7 9.02257e-18
CG131 VDD 7#28 1.2883e-17
CG132 VDD 7 1.16474e-17
CG133 VDD#41 7#29 1.37392e-17
CG134 MX110/M1#d MX110/M1#g 1.0052e-17
CG135 VDD 7#27 3.12063e-17
CG136 MX110/M0#s 7#27 1.04021e-17
CG137 VDD MX110/M1#g 1.16474e-17
CG138 VDD#25 MX104/M0#d 6.06011e-18
CG139 VDD#41 MX104/M0#d 6.02107e-18
CG140 VDD#28 6 3.77064e-18
CG141 MX104/M0#s 6#18 3.33338e-18
CG142 VDD 6#12 3.26683e-18
CG143 VDD 6#18 3.14812e-18
CG144 VDD#25 6#18 2.88248e-18
CG145 VDD#41 6 2.59032e-18
CG146 MX104/M0#s MX104/M0#d 1.64784e-17
CG147 VDD#41 6#18 1.37392e-17
CG148 MX104/M0#s 6#12 1.17256e-17
CG149 VDD 6#17 2.3369e-17
CG150 VDD 6 7.51351e-18
CG151 MX83/M0#s 6 8.67644e-18
CG152 VDD 6#16 1.9896e-17
CG153 VDD 5#31 9.48975e-18
CG154 MX104/M0#s 5#25 8.64641e-18
CG155 MX83/M0#s 5#37 7.33524e-18
CG156 VDD 5#32 7.2872e-18
CG157 VDD 5#38 6.85992e-18
CG158 VDD 5#41 6.09132e-18
CG159 VDD#41 MX89/M0#g 5.21861e-18
CG160 VDD#41 5 5.21861e-18
CG161 VDD#22 MX89/M0#g 5.04997e-18
CG162 VDD#6 5 5.04997e-18
CG163 MX104/M0#s 5#37 4.61388e-18
CG164 VDD#41 MX70/M0#d 4.46871e-18
CG165 VDD#28 MX70/M0#d 3.51232e-18
CG166 VDD#41 5#30 3.35579e-18
CG167 VDD 5#25 2.57548e-18
CG168 VDD#22 5#41 2.27999e-18
CG169 VDD#41 5#32 2.26391e-18
CG170 VDD#6 5#30 1.97099e-18
CG171 VDD#41 5#31 1.95251e-18
CG172 MX110/M0#s MX89/M0#g 1.78662e-18
CG173 MX83/M0#s MX70/M0#d 1.63424e-17
CG174 MX83/M0#s 5#25 1.17361e-17
CG175 MX104/M0#s MX70/M0#d 1.22819e-17
CG176 VDD 5 1.60341e-17
CG177 VDD MX89/M0#g 1.60341e-17
CG178 VDD 5#29 1.78836e-17
CG179 VDD#41 5#41 1.03936e-17
CG180 VDD 5#30 2.30867e-17
CG181 MX83/M0#s 5#29 2.79275e-17
CG182 VDD#28 4#19 7.42383e-18
CG183 VDD#6 MX88/M0#d 7.38183e-18
CG184 VDD 4#16 7.27123e-18
CG185 VDD#25 4#18 7.22395e-18
CG186 VDD#41 4 5.21861e-18
CG187 VDD#25 4 5.04997e-18
CG188 VDD#41 MX88/M0#d 4.48317e-18
CG189 VDD 4#17 3.57596e-18
CG190 MX110/M0#s 4#18 3.18763e-18
CG191 VDD#28 4#18 3.04585e-18
CG192 VDD#41 4#18 6.33681e-17
CG193 MX83/M0#s 4#19 3.60392e-17
CG194 VDD 4#19 1.63386e-17
CG195 VDD 4#18 2.48386e-17
CG196 MX104/M0#s 4#18 4.26131e-17
CG197 MX104/M0#s 4 9.89405e-18
CG198 VDD#41 4#19 9.26657e-17
CG199 VDD 4 1.60341e-17
CG200 VDD#6 4#19 9.24121e-18
CG201 MX104/M0#s 4#17 2.22736e-17
CG202 VDD MX70/M0#g 7.51351e-18
CG203 VDD 3#41 6.68789e-18
CG204 VDD#33 MX69/M0#d 6.13168e-18
CG205 MX82/M0#s 3#41 5.83782e-18
CG206 VDD#25 MX73/M0#g 5.77573e-18
CG207 VDD#41 MX73/M0#g 5.21861e-18
CG208 VDD#6 3 5.04997e-18
CG209 VDD 3#33 4.75601e-18
CG210 VDD#41 MX69/M0#d 4.48317e-18
CG211 VDD#28 MX70/M0#g 3.77064e-18
CG212 VDD#41 3 2.59032e-18
CG213 MX104/M0#s MX70/M0#g 2.38458e-18
CG214 VDD#41 MX70/M0#g 2.3097e-18
CG215 VDD 3#42 9.0913e-18
CG216 MX82/M0#s 3#33 1.17361e-17
CG217 VDD MX73/M0#g 1.34714e-17
CG218 VDD 3 9.61815e-18
CG219 MX82/M0#s MX69/M0#d 1.63424e-17
CG220 MX83/M0#s MX70/M0#g 9.10442e-18
CG221 VDD#6 2#13 8.4419e-18
CG222 VDD#33 2#13 7.58073e-18
CG223 VDD#6 MX68/M0#s 7.38183e-18
CG224 MX99/M0#s 2#14 5.47241e-18
CG225 VDD#41 MX68/M0#s 4.48317e-18
CG226 VDD#41 2 4.46871e-18
CG227 VDD 2#9 3.86405e-18
CG228 VDD#36 2 3.69092e-18
CG229 VDD#33 2 3.6671e-18
CG230 VDD#41 2#14 7.71051e-17
CG231 MX82/M0#s 2#13 1.31659e-17
CG232 VDD#41 2#13 7.84027e-17
CG233 VDD#33 2#14 1.14457e-17
CG234 VDD 2#14 1.91324e-17
CG235 VDD 2#13 3.01956e-17
CG236 MX82/M0#s 2#14 1.90128e-17
CG237 VDD#41 1#21 5.76773e-18
CG238 VDD#33 1 5.04997e-18
CG239 VDD 1#14 4.86112e-18
CG240 VDD#39 MX71/M0#d 4.65982e-18
CG241 VDD#41 1#20 4.41176e-18
CG242 VDD#41 1 2.59032e-18
CG243 MX82/M0#s 1 1.71567e-18
CG244 VDD#39 1#22 1.51376e-18
CG245 VDD#36 MX71/M0#d 1.37676e-18
CG246 VDD#41 MX71/M0#d 6.00165e-18
CG247 VDD 1#21 2.50199e-17
CG248 MX99/M0#s 1#21 2.82162e-17
CG249 MX99/M0#s 1#22 5.99802e-18
CG250 VDD#41 1#22 1.37392e-17
CG251 VDD 1#23 3.31694e-17
CG252 VDD 1#22 1.66368e-17
CG253 MX99/M0#s MX71/M0#d 1.91315e-17
CG254 VDD 1 9.61815e-18
CG255 MX99/M0#s 1#14 1.17245e-17
CG256 VDD MX71/M0#d 1.08956e-17
CG257 VDD 1#20 2.60521e-17
RfG82 VDD#1 VDD#2 36.051208 $L=0.7095 $W=0.25
RfG83 VDD#2 VDD#3 43.481621 $L=0.86 $W=0.25
RfG84 VDD#3 VDD#4 43.481621 $L=0.86 $W=0.25
RfG85 VDD#4 VDD#5 40.172813 $L=0.79 $W=0.25
RfG86 VDD#2 VDD#9 61.156857 $L=0.9 $W=0.17
RfG87 VDD#3 VDD#11 61.156857 $L=0.9 $W=0.17
RfG88 VDD#4 VDD#13 61.156857 $L=0.9 $W=0.17
RfG89 VDD#5 VDD#15 64.752945 $L=0.9 $W=0.17
RfG90 VDD#5 VDD#16 47.340813 $L=0.93 $W=0.25
RfG91 VDD#16 VDD#18 61.156857 $L=0.9 $W=0.17
RfG92 VDD#16 VDD#19 48.089619 $L=0.95 $W=0.25
RfG93 VDD#19 VDD#21 58.145092 $L=0.86 $W=0.17
RfG94 VDD#19 VDD#22 43.481621 $L=0.86 $W=0.25
RfG95 VDD#22 VDD#24 58.145092 $L=0.86 $W=0.17
RfG96 VDD#22 VDD#25 90.585625 $L=1.78 $W=0.25
RfG97 VDD#25 VDD#27 58.145092 $L=0.86 $W=0.17
RfG98 VDD#25 VDD#28 48.089619 $L=0.95 $W=0.25
RfG99 VDD#28 VDD#30 58.145092 $L=0.86 $W=0.17
RfG100 VDD#28 VDD#31 49.388809 $L=0.97 $W=0.25
RfG101 VDD#31 VDD#33 64.748810 $L=1.27 $W=0.25
RfG102 VDD#33 VDD#35 58.145092 $L=0.86 $W=0.17
RfG103 VDD#33 VDD#36 87.513618 $L=1.72 $W=0.25
RfG104 VDD#36 VDD#38 58.145092 $L=0.86 $W=0.17
RfG105 VDD#36 VDD#39 35.052811 $L=0.69 $W=0.25
ReG106 VDD#40 VDD 1.654688 $L=5.295 $W=0.4
ReG107 VDD VDD#41 0.357812 $L=1.145 $W=0.4
Rh_1_G108 VDD#6 VDD#5 1.153846 $A=0.3757
Rh_1_G109 VDD#6 VDD#31 1.000000 $A=0.4335
Rh_2_G110 MX112/M0#s VDD#9 15.000000 $A=0.0289
Rh_2_G111 MX112/M1#d VDD#11 15.000000 $A=0.0289
Rh_2_G112 MX112/M3#d VDD#13 15.000000 $A=0.0289
Rh_2_G113 MX106/M1#d VDD#15 15.000000 $A=0.0289
Rh_2_G114 MX106/M0#s VDD#18 15.000000 $A=0.0289
Rh_2_G115 MX110/M1#d VDD#21 15.000000 $A=0.0289
Rh_2_G116 MX110/M0#s VDD#24 15.000000 $A=0.0289
Rh_2_G117 MX104/M0#s VDD#27 15.000000 $A=0.0289
Rh_2_G118 MX83/M0#s VDD#30 15.000000 $A=0.0289
Rh_2_G119 MX82/M0#s VDD#35 15.000000 $A=0.0289
Rh_2_G120 MX99/M0#s VDD#38 15.000000 $A=0.0289
RjG121 VDD#5 VDD#40 11.692307 $A=0.3757
RjG122 VDD#31 VDD#41 10.133333 $A=0.4335
RmwG123 MX112/M2#s MX112/M1#d 0.001000 $W=1000000
RmwG124 MX106/M2#s MX106/M1#d 0.001000 $W=1000000
RmwG125 MX106/M3#d MX112/M3#d 0.001000 $W=1000000
RmwG126 MX85/M0#s MX110/M0#s 0.001000 $W=1000000
RmwG127 MX72/M0#s MX106/M0#s 0.001000 $W=1000000
RmwG128 MX71/M0#s MX99/M0#s 0.001000 $W=1000000
RmwG129 MX70/M0#s MX83/M0#s 0.001000 $W=1000000
RmwG130 MX69/M0#s MX82/M0#s 0.001000 $W=1000000
*
*|NET 4 1.6006e-15
*|I (MX109/M0#d MX109/M0 d X 0 3.9295 0.8000)
*|I (MX86/M0#s MX86/M0 s X 0 3.6505 0.8000)
*|I (MX78/M0#g MX78/M0 g X 0 5.8150 0.8000)
*|I (MX104/M0#g MX104/M0 g X 0 5.8150 3.2800)
*|I (MX88/M0#d MX88/M0 d X 0 3.9295 3.2800)
*|I (MX68/M0#d MX68/M0 d X 0 3.6505 3.2800)
*|S (4 5.8150 3.2800)
*|S (4#8 5.8150 2.6500)
*|S (4#9 5.8150 2.4850)
*|S (4#11 3.7900 3.2800)
*|S (4#12 3.7900 3.0900)
*|S (4#13 3.7900 0.8500)
*|S (4#15 3.7900 0.8000)
*|S (4#16 5.8150 2.6500)
*|S (4#17 5.6000 2.6500)
*|S (4#18 5.6000 2.6500)
*|S (4#19 3.7900 3.0900)
*|S (4#20 3.7900 0.8500)
CL1 MX88/M0#d VSS 1.01759e-18
CL2 MX78/M0#g VSS 2.07504e-17
CL3 MX109/M0#d VSS 4.57851e-18
CL4 4#20 VSS 2.15655e-17
CL5 4#19 VSS 8.86431e-18
CL6 4#18 VSS 1.12229e-17
CL7 4#16 VSS 6.46569e-18
CL8 4#12 VSS 5.66356e-18
CL9 4#17 VSS 6.93851e-19
CL10 4 VSS 7.88022e-18
CL11 4#20 45 7.29102e-18
CL12 4#12 47 1.17361e-17
CL13 MX88/M0#d 47 1.55681e-17
CL14 4#19 47 3.09521e-17
CL15 MX109/M0#d 45 1.93352e-17
CL16 4#16 6#18 5.44313e-18
CL17 4 MX104/M0#d 4.82703e-18
CL18 4 6#12 3.27061e-18
CL19 4#18 6#12 2.46247e-18
CL20 4 6#16 1.50882e-18
CL21 MX78/M0#g 6#20 1.42691e-18
CL22 4#18 6#16 1.17278e-17
CL23 4#16 6#16 2.83428e-17
CL24 4#16 6#19 7.53731e-18
CL25 4#18 MX104/M0#d 6.86406e-18
CL26 4#17 6#16 2.67671e-17
CL27 4#18 6#19 2.93459e-17
CL28 4#19 6#17 1.39069e-17
CL29 4#18 6#18 6.14503e-17
CL30 4#16 6#12 1.35469e-17
CL31 MX78/M0#g MX81/M0#d 6.49954e-18
CL32 4#20 5#40 7.9568e-18
CL33 MX78/M0#g 5#34 7.10033e-18
CL34 MX109/M0#d MX109/M0#g 6.2356e-18
CL35 4#18 5#29 6.19034e-18
CL36 4#19 5#29 5.23506e-18
CL37 MX88/M0#d 5 4.762e-18
CL38 4#17 5#38 3.60955e-18
CL39 4#12 5 3.27061e-18
CL40 4#18 5#25 2.69577e-18
CL41 4#19 5 2.23721e-18
CL42 4#18 5#35 2.1496e-18
CL43 4#16 5#32 1.9426e-18
CL44 MX78/M0#g MX80/M0#d 1.9309e-18
CL45 4#18 5#38 3.50038e-17
CL46 MX109/M0#d 5#36 1.34272e-17
CL47 4#18 MX70/M0#d 1.61161e-17
CL48 4#18 5#37 7.04782e-17
CL49 4#20 5#36 2.86736e-17
CL50 4#19 5#30 4.28052e-17
CL51 4#19 5#38 1.58468e-17
CL52 4#19 5#37 9.21611e-18
CL53 4#20 5#39 1.70793e-17
CL54 4#12 5#30 2.15361e-17
CL55 4#17 5#29 1.25918e-17
CL56 MX109/M0#d VSS#6 7.24683e-18
CL57 MX109/M0#d VSS#41 5.66554e-18
CL58 4#20 VSS#6 4.99237e-18
CL59 MX78/M0#g VSS#41 4.8201e-18
CL60 MX78/M0#g MX78/M0#s 8.30381e-18
CL61 4#20 VSS#41 2.07771e-17
RgL246 4 4#8 183.599075 $L=0.63 $W=0.15
RgL247 4#8 4#9 34.134449 $L=0.1645 $W=0.27
RgL248 4#9 MX78/M0#g 541.491272 $L=1.685 $W=0.15
RfL249 4#11 4#12 14.305882 $L=0.19 $W=0.17
RfL250 4#13 4#15 3.764706 $L=0.05 $W=0.17
RfL251 4#16 4#17 16.188236 $L=0.215 $W=0.17
ReL252 4#18 4#19 1.547291 $L=3.05 $W=0.23
ReL253 4#19 4#20 1.217391 $L=2.24 $W=0.23
RhL254 MX109/M0#d 4#15 15.000000 $A=0.0289
Rh_2_L255 MX88/M0#d 4#11 15.000000 $A=0.0289
RjL256 4#17 4#18 152.000000 $A=0.0289
RjL257 4#12 4#19 152.000000 $A=0.0289
RjL258 4#13 4#20 152.000000 $A=0.0289
RiL259 4#8 4#16 15.000000 $A=0.0289
RmwL260 MX86/M0#s MX109/M0#d 0.001000 $W=1000000
RmwL261 MX104/M0#g 4 0.001000 $W=1000000
RmwL262 MX68/M0#d MX88/M0#d 0.001000 $W=1000000
*
*|NET 51 1.37677e-16
*|I (MX89/M0#s MX89/M0 s X 0 6.7505 3.2800)
*|I (MX85/M0#d MX85/M0 d X 0 7.0295 3.2800)
*|S (51 6.8900 3.2350)
CS1 51 VSS 3.9528e-18
RmwS405 MX89/M0#s 51 0.001000 $W=1000000
RmwS406 MX85/M0#d 51 0.001000 $W=1000000
*
*|NET 8 1.72285e-15
*|I (MX107/M0#g MX107/M0 g X 0 9.4050 0.8000)
*|I (MX107/M1#g MX107/M1 g X 0 9.8350 0.8000)
*|I (MX107/M2#g MX107/M2 g X 0 10.2650 0.8000)
*|I (MX107/M3#g MX107/M3 g X 0 10.6950 0.8000)
*|I (MX90/M0#d MX90/M0 d X 0 7.6705 0.8000)
*|I (MX90/M1#s MX90/M1 s X 0 7.9495 0.8000)
*|I (MX84/M0#g MX84/M0 g X 0 7.1050 0.8000)
*|I (MX77/M0#g MX77/M0 g X 0 8.9750 0.8000)
*|I (MX110/M0#d MX110/M0 d X 0 7.6705 3.2800)
*|I (MX110/M1#s MX110/M1 s X 0 7.9495 3.2800)
*|I (MX106/M0#g MX106/M0 g X 0 9.4050 3.2400)
*|I (MX106/M1#g MX106/M1 g X 0 9.8350 3.2400)
*|I (MX106/M2#g MX106/M2 g X 0 10.2650 3.2400)
*|I (MX106/M3#g MX106/M3 g X 0 10.6950 3.2400)
*|I (MX85/M0#g MX85/M0 g X 0 7.1050 3.2800)
*|I (MX72/M0#g MX72/M0 g X 0 8.9750 3.2400)
*|S (8 7.1050 3.2800)
*|S (8#43 7.1050 1.6300)
*|S (8#44 7.1050 1.4650)
*|S (8#45 10.6950 1.6300)
*|S (8#46 10.2650 1.6300)
*|S (8#47 9.8350 1.6300)
*|S (8#48 9.4050 1.6300)
*|S (8#49 8.9750 1.6300)
*|S (8#51 7.8100 3.2800)
*|S (8#52 7.8100 2.9900)
*|S (8#53 9.8350 1.6300)
*|S (8#54 7.8100 1.6300)
*|S (8#55 7.1050 1.6300)
*|S (8#56 7.8100 1.0250)
*|S (8#58 7.8100 0.8000)
*|S (8#59 7.8100 2.9900)
*|S (8#60 7.8100 1.0250)
CP1 MX72/M0#g VSS 9.96227e-20
CP2 MX106/M3#g VSS 2.95046e-18
CP3 MX106/M2#g VSS 1.76187e-18
CP4 MX106/M1#g VSS 2.0054e-18
CP5 MX106/M0#g VSS 2.0054e-18
CP6 MX77/M0#g VSS 1.63032e-17
CP7 MX84/M0#g VSS 2.17753e-17
CP8 MX90/M0#d VSS 2.41435e-18
CP9 MX107/M3#g VSS 1.82689e-17
CP10 MX107/M2#g VSS 1.36622e-17
CP11 MX107/M1#g VSS 1.23433e-17
CP12 MX107/M0#g VSS 1.52775e-17
CP13 8#60 VSS 1.71701e-17
CP14 8#59 VSS 7.91717e-18
CP15 8#55 VSS 2.04638e-17
CP16 8#54 VSS 3.66155e-17
CP17 8#53 VSS 4.6057e-17
CP18 8#56 VSS 1.01511e-17
CP19 8#52 VSS 3.35979e-19
CP20 8 VSS 4.03034e-18
CP21 8 51 8.13152e-18
CP22 8#59 51 2.26245e-18
CP23 MX77/M0#g MX77/M0#d 7.12693e-18
CP24 8#59 33#36 6.61643e-18
CP25 8#52 33#42 5.12422e-18
CP26 8#52 33#36 4.70343e-18
CP27 MX106/M2#g 33#40 4.21245e-18
CP28 MX106/M1#g 33#41 4.21245e-18
CP29 MX106/M0#g 33#41 4.21245e-18
CP30 MX72/M0#g 33#41 4.21245e-18
CP31 8#56 MX77/M0#d 4.19949e-18
CP32 8#59 33#41 3.82444e-18
CP33 8#60 MX77/M0#d 3.45306e-18
CP34 MX72/M0#g 33#42 2.75143e-18
CP35 MX106/M3#g 33#40 2.58114e-18
CP36 8#56 33#44 2.43086e-18
CP37 8#60 33#41 1.89833e-18
CP38 MX77/M0#g 33#44 1.87466e-18
CP39 MX106/M0#g 33#36 1.84979e-18
CP40 8#54 33#44 1.8155e-18
CP41 MX107/M3#g 33#40 1.8094e-18
CP42 8#53 MX77/M0#d 2.11231e-17
CP43 MX72/M0#g 33#36 1.00108e-17
CP44 8#53 33#40 4.96495e-17
CP45 8#59 33#43 1.08457e-17
CP46 8#53 33#43 1.85657e-17
CP47 8#59 33#42 3.75065e-17
CP48 8#53 33#41 1.21321e-16
CP49 8#53 33#44 1.73895e-17
CP50 8#60 33#44 2.45863e-17
CP51 8#60 33#43 1.11052e-17
CP52 8#54 VSS#40 7.86063e-18
CP53 MX77/M0#g MX107/M0#s 7.57466e-18
CP54 MX107/M3#g MX107/M3#d 7.15597e-18
CP55 MX107/M2#g MX107/M1#d 7.15597e-18
CP56 MX107/M1#g MX107/M1#d 7.15597e-18
CP57 MX107/M0#g MX107/M0#s 7.15597e-18
CP58 MX84/M0#g MX90/M0#s 6.95795e-18
CP59 8#53 MX107/M0#s 6.65202e-18
CP60 MX90/M0#d VSS#40 6.27771e-18
CP61 MX84/M0#g VSS#16 5.46831e-18
CP62 8#56 MX90/M0#s 5.27471e-18
CP63 8#56 MX90/M1#d 5.27471e-18
CP64 MX77/M0#g VSS#40 4.8201e-18
CP65 MX107/M0#g VSS#40 4.8201e-18
CP66 8#60 MX90/M0#s 4.69195e-18
CP67 MX77/M0#g VSS#14 4.29097e-18
CP68 MX107/M0#g VSS#14 4.29097e-18
CP69 MX107/M2#g VSS#6 4.29097e-18
CP70 MX107/M1#g VSS#6 4.29097e-18
CP71 MX107/M3#g VSS#4 4.29097e-18
CP72 8#60 MX90/M1#d 4.18023e-18
CP73 8#55 VSS#40 3.26858e-18
CP74 MX107/M2#g VSS#40 3.117e-18
CP75 MX107/M1#g VSS#40 3.117e-18
CP76 MX107/M3#g VSS#40 3.05276e-18
CP77 MX84/M0#g VSS#40 2.50645e-18
CP78 MX90/M0#d VSS#16 2.44428e-18
CP79 MX90/M0#d VSS#15 2.42043e-18
CP80 MX77/M0#g MX90/M1#d 2.23615e-18
CP81 MX84/M0#g VSS#41 1.56653e-18
CP82 MX107/M0#g MX107/M1#d 1.48714e-18
CP83 MX107/M1#g MX107/M0#s 1.48714e-18
CP84 8#60 VSS#40 1.59825e-17
CP85 8#55 MX90/M0#s 9.11334e-18
CP86 8#54 MX90/M1#d 1.07439e-17
CP87 MX90/M0#d MX90/M1#d 1.61382e-17
CP88 MX90/M0#d MX90/M0#s 1.76175e-17
CP89 8#53 VSS#40 1.29357e-17
RgP335 8 8#43 511.359100 $L=1.65 $W=0.15
RgP336 8#43 8#44 34.134449 $L=0.1645 $W=0.27
RgP337 8#44 MX84/M0#g 213.731293 $L=0.665 $W=0.15
RgP338 MX106/M3#g 8#45 513.369995 $L=1.61 $W=0.15
RgP339 8#45 8#46 62.011234 $L=0.43 $W=0.27
RgP340 8#46 8#47 75.310860 $L=0.43 $W=0.27
RgP341 8#45 MX107/M3#g 262.729980 $L=0.83 $W=0.15
RgP342 8#46 MX107/M2#g 260.173065 $L=0.83 $W=0.15
RgP343 8#46 MX106/M2#g 510.813080 $L=1.61 $W=0.15
RgP344 8#47 MX107/M1#g 247.426666 $L=0.83 $W=0.15
RgP345 8#47 8#48 75.310860 $L=0.43 $W=0.27
RgP346 8#48 MX107/M0#g 260.173065 $L=0.83 $W=0.15
RgP347 8#47 MX106/M1#g 498.066681 $L=1.61 $W=0.15
RgP348 8#48 8#49 62.011227 $L=0.43 $W=0.27
RgP349 8#49 MX77/M0#g 262.729980 $L=0.83 $W=0.15
RgP350 8#48 MX106/M0#g 510.813080 $L=1.61 $W=0.15
RgP351 8#49 MX72/M0#g 513.369995 $L=1.61 $W=0.15
RfP352 8#51 8#52 21.835293 $L=0.29 $W=0.17
RfP353 8#53 8#54 151.980637 $L=2.025 $W=0.17
RfP354 8#54 8#55 52.592400 $L=0.705 $W=0.17
RfP355 8#54 8#56 40.316555 $L=0.605 $W=0.17
RfP356 8#56 8#58 16.941177 $L=0.225 $W=0.17
ReP357 8#59 8#60 1.067935 $L=1.965 $W=0.23
RhP358 MX90/M0#d 8#58 15.000000 $A=0.0289
Rh_2_P359 MX110/M0#d 8#51 15.000000 $A=0.0289
RjP360 8#52 8#59 76.000000 $A=0.0578
RjP361 8#56 8#60 152.000000 $A=0.0289
RiP362 8#47 8#53 3.750000 $A=0.1156
RiP363 8#43 8#55 15.000000 $A=0.0289