*
*|DSPF 1.5
*
*|DATE "Fri Feb 28 12:12:02 2025"
*|VENDOR "Cadence Design Systems"
*|PROGRAM "Cadence Quantus Extraction"
*|VERSION "22.1.0-p089 Linux 64 bit - (Thu Jan 19 11:47:08 PST 2023)"
*|DESIGN "SDFFX1_LP"
*|DIVIDER /
*|DELIMITER #
*|DeviceFingerDelim "@"
*|BUSBIT []
*|GLOBAL_TEMPERATURE 25
*|OPERATING_TEMPERATURE 25
** QRC_TECH_DIR /vols/wfo_devel/projects/reference_SKY130/tech/sky130_release_0.0.4/quantus/extraction/typical 
** HIERARCHICAL_SPLIT_PINS_DELIMITER '%'
** caps2d version: 10
*
.SUBCKT  SDFFX1_LP CK D Q QN SE SI VDD VSS
*
*Net Section
*
*|GROUND_NET VSS
*
*|NET 2 1.85397e-15
*|I (MX89/M0#d MX89/M0 d X 0 1.6895 0.8000)
*|I (MX88/M0#d MX88/M0 d X 0 1.4105 0.8000)
*|I (MX84/M0#d MX84/M0 d X 0 3.4995 0.8000)
*|I (MX85/M0#d MX85/M0 d X 0 1.4105 3.2800)
*|I (MX62/M0#s MX62/M0 s X 0 3.4995 3.2800)
*|I (MM1#s MM1 s X 0 1.6895 3.2800)
*|S (2 1.5500 3.2800)
*|S (2#2 1.5500 3.2800)
*|S (2#3 1.5500 3.0900)
*|S (2#4 1.5500 0.8500)
*|S (2#6 1.5500 0.8000)
*|S (2#8 3.3600 3.2800)
*|S (2#9 3.3600 3.0900)
*|S (2#10 3.3600 0.8500)
*|S (2#12 3.3600 0.8000)
*|S (2#13 3.3600 3.0900)
*|S (2#14 1.5500 3.0900)
*|S (2#15 1.5500 0.8500)
*|S (2#16 3.3600 0.8500)
CJ1 MX62/M0#s VSS 1.9229e-18
CJ2 MX84/M0#d VSS 5.68126e-18
CJ3 MX89/M0#d VSS 2.80797e-18
CJ4 2#16 VSS 1.73081e-17
CJ5 2#15 VSS 2.14032e-17
CJ6 2#14 VSS 5.48157e-18
CJ7 2#13 VSS 1.02507e-17
CJ8 2#3 VSS 3.77688e-18
CJ9 2#9 VSS 9.01125e-18
CJ10 2 VSS 1.85305e-18
CJ11 2 34 1.57281e-17
CJ12 2#3 34 1.17361e-17
CJ13 MX89/M0#d 32 1.85242e-17
CJ14 2#15 32 5.59583e-18
CJ15 2#15 36 6.08715e-18
CJ16 MX89/M0#d 36 1.80932e-17
CJ17 2#3 38 1.17361e-17
CJ18 2#14 34 1.02765e-17
CJ19 2#14 38 3.08938e-17
CJ20 2 38 1.55681e-17
CJ21 MX62/M0#s 5 5.22705e-18
CJ22 2#16 5#36 4.20074e-18
CJ23 2#13 5#30 1.56642e-17
CJ24 2#9 5#30 1.35469e-17
CJ25 MX84/M0#d 4#20 3.99586e-18
CJ26 MX62/M0#s 4#19 3.74119e-18
CJ27 2#13 MX86/M0#d 3.46553e-18
CJ28 2#16 MX99/M0#d 3.31626e-18
CJ29 2#16 4#20 1.27067e-16
CJ30 2#13 4#19 1.67968e-16
CJ31 2#9 4#12 1.17256e-17
CJ32 MX84/M0#d MX99/M0#d 1.89122e-17
CJ33 MX62/M0#s MX86/M0#d 1.56847e-17
CJ34 2#16 3#40 7.43186e-18
CJ35 MX84/M0#d MX84/M0#g 7.13214e-18
CJ36 2#14 3#41 5.04721e-18
CJ37 2#15 3#42 3.72646e-18
CJ38 2#16 MX77/M0#d 3.62335e-18
CJ39 MX84/M0#d 3#43 3.62335e-18
CJ40 2#9 3#41 2.78279e-18
CJ41 2#13 3#33 2.69577e-18
CJ42 MX84/M0#d 3#39 1.89527e-18
CJ43 MX62/M0#s MX63/M0#d 1.17215e-17
CJ44 2#13 3#39 8.52501e-18
CJ45 2#16 3#39 1.00023e-17
CJ46 2#16 3#43 4.71076e-17
CJ47 2#13 3#42 4.11113e-17
CJ48 2#13 MX63/M0#d 1.6567e-17
CJ49 2#13 3#40 1.37708e-17
CJ50 2#16 3#42 4.21519e-17
CJ51 2#13 3#41 9.36685e-17
CJ52 MX84/M0#d MX77/M0#d 1.27642e-17
CJ53 2#9 3#33 8.64641e-18
CJ54 MX84/M0#d VSS#4 7.24683e-18
CJ55 MX84/M0#d VSS#30 5.66554e-18
CJ56 MX89/M0#d VSS#30 5.5525e-18
CJ57 2#16 VSS#4 5.37701e-18
CJ58 MX89/M0#d VSS#13 3.62342e-18
CJ59 MX89/M0#d VSS#12 3.60004e-18
CJ60 2#15 VSS#30 2.07771e-17
CJ61 2#16 VSS#30 2.07771e-17
RfJ144 2#2 2#3 14.305882 $L=0.19 $W=0.17
RfJ145 2#4 2#6 3.764706 $L=0.05 $W=0.17
RfJ146 2#8 2#9 14.305882 $L=0.19 $W=0.17
RfJ147 2#10 2#12 3.764706 $L=0.05 $W=0.17
ReJ148 2#13 2#14 1.308160 $L=2.61 $W=0.23
ReJ149 2#14 2#15 1.217391 $L=2.24 $W=0.23
ReJ150 2#13 2#16 1.217391 $L=2.24 $W=0.23
RhJ151 MX89/M0#d 2#6 15.000000 $A=0.0289
RhJ152 MX84/M0#d 2#12 15.000000 $A=0.0289
Rh_2_J153 2 2#2 15.000000 $A=0.0289
Rh_2_J154 MX62/M0#s 2#8 15.000000 $A=0.0289
RjJ155 2#9 2#13 152.000000 $A=0.0289
RjJ156 2#3 2#14 152.000000 $A=0.0289
RjJ157 2#4 2#15 152.000000 $A=0.0289
RjJ158 2#10 2#16 152.000000 $A=0.0289
RmwJ159 MX88/M0#d MX89/M0#d 0.001000 $W=1000000
RmwJ160 MX85/M0#d 2 0.001000 $W=1000000
RmwJ161 MM1#s 2 0.001000 $W=1000000
*
*|NET 4 1.60098e-15
*|I (MX99/M0#d MX99/M0 d X 0 3.9295 0.8000)
*|I (MX84/M0#s MX84/M0 s X 0 3.6505 0.8000)
*|I (MX75/M0#g MX75/M0 g X 0 5.8150 0.8000)
*|I (MX96/M0#g MX96/M0 g X 0 5.8150 3.2800)
*|I (MX86/M0#d MX86/M0 d X 0 3.9295 3.2800)
*|I (MX62/M0#d MX62/M0 d X 0 3.6505 3.2800)
*|S (4 5.8150 3.2800)
*|S (4#8 5.8150 2.6500)
*|S (4#9 5.8150 2.4850)
*|S (4#11 3.7900 3.2800)
*|S (4#12 3.7900 3.0900)
*|S (4#13 3.7900 0.8500)
*|S (4#15 3.7900 0.8000)
*|S (4#16 5.8150 2.6500)
*|S (4#17 5.6000 2.6500)
*|S (4#18 5.6000 2.6500)
*|S (4#19 3.7900 3.0900)
*|S (4#20 3.7900 0.8500)
CL1 MX86/M0#d VSS 1.01759e-18
CL2 MX75/M0#g VSS 2.07504e-17
CL3 MX99/M0#d VSS 4.57851e-18
CL4 4#20 VSS 2.15655e-17
CL5 4#19 VSS 8.86431e-18
CL6 4#18 VSS 1.17969e-17
CL7 4#16 VSS 6.46569e-18
CL8 4#12 VSS 5.66356e-18
CL9 4#17 VSS 6.93851e-19
CL10 4 VSS 7.88022e-18
CL11 4#20 40 7.29102e-18
CL12 4#12 42 1.17361e-17
CL13 MX86/M0#d 42 1.55681e-17
CL14 MX99/M0#d 40 1.93352e-17
CL15 4#19 42 3.09521e-17
CL16 4#16 6#18 5.44313e-18
CL17 4 MX96/M0#d 4.82703e-18
CL18 4 6#12 3.27061e-18
CL19 4#18 6#12 2.46247e-18
CL20 4 6#16 1.50882e-18
CL21 MX75/M0#g 6#20 1.42691e-18
CL22 4#16 6#16 2.83428e-17
CL23 4#18 6#16 1.17278e-17
CL24 4#16 6#19 7.53731e-18
CL25 MX75/M0#g MX81/M0#d 6.49954e-18
CL26 4#18 6#19 2.93459e-17
CL27 4#17 6#16 2.67671e-17
CL28 4#16 6#12 1.35469e-17
CL29 4#18 MX96/M0#d 6.86406e-18
CL30 4#18 6#18 6.14503e-17
CL31 4#19 6#17 1.39069e-17
CL32 4#20 5#40 7.9568e-18
CL33 MX75/M0#g 5#34 7.10033e-18
CL34 MX99/M0#d MX99/M0#g 6.2356e-18
CL35 4#18 5#29 6.19034e-18
CL36 4#19 5#29 5.23506e-18
CL37 MX86/M0#d 5 4.762e-18
CL38 4#17 5#38 3.60955e-18
CL39 4#12 5 3.27061e-18
CL40 4#18 5#25 2.69577e-18
CL41 4#19 5 2.23721e-18
CL42 4#18 5#35 2.1496e-18
CL43 4#16 5#32 1.9426e-18
CL44 MX75/M0#g MX78/M0#d 1.9309e-18
CL45 4#20 5#39 1.70793e-17
CL46 4#19 5#38 1.58468e-17
CL47 4#18 5#38 3.50038e-17
CL48 4#19 5#37 9.21611e-18
CL49 4#18 MX64/M0#d 1.61161e-17
CL50 4#18 5#37 7.04782e-17
CL51 4#12 5#30 2.15361e-17
CL52 4#17 5#29 1.25918e-17
CL53 4#20 5#36 2.86736e-17
CL54 4#19 5#30 4.28052e-17
CL55 MX99/M0#d 5#36 1.34272e-17
CL56 MX99/M0#d VSS#4 7.24683e-18
CL57 MX99/M0#d VSS#30 5.66554e-18
CL58 4#20 VSS#4 4.99237e-18
CL59 MX75/M0#g VSS#30 4.8201e-18
CL60 MX75/M0#g MX75/M0#s 8.30381e-18
CL61 4#20 VSS#30 2.07771e-17
RgL190 4 4#8 183.599075 $L=0.63 $W=0.15
RgL191 4#8 4#9 34.134449 $L=0.1645 $W=0.27
RgL192 4#9 MX75/M0#g 541.491272 $L=1.685 $W=0.15
RfL193 4#11 4#12 14.305882 $L=0.19 $W=0.17
RfL194 4#13 4#15 3.764706 $L=0.05 $W=0.17
RfL195 4#16 4#17 16.188236 $L=0.215 $W=0.17
ReL196 4#18 4#19 1.547291 $L=3.05 $W=0.23
ReL197 4#19 4#20 1.217391 $L=2.24 $W=0.23
RhL198 MX99/M0#d 4#15 15.000000 $A=0.0289
Rh_2_L199 MX86/M0#d 4#11 15.000000 $A=0.0289
RjL200 4#17 4#18 152.000000 $A=0.0289
RjL201 4#12 4#19 152.000000 $A=0.0289
RjL202 4#13 4#20 152.000000 $A=0.0289
RiL203 4#8 4#16 15.000000 $A=0.0289
RmwL204 MX84/M0#s MX99/M0#d 0.001000 $W=1000000
RmwL205 MX96/M0#g 4 0.001000 $W=1000000
RmwL206 MX62/M0#d MX86/M0#d 0.001000 $W=1000000
*
*|NET VDD 2.76521e-15
*|P (VDD X 0 4.8250 4.1450)
*|I (MX97/M0#s MX97/M0 s X 0 7.1805 3.2800)
*|I (MX96/M0#s MX96/M0 s X 0 5.7395 3.2800)
*|I (MX83/M0#s MX83/M0 s X 0 4.5105 3.2800)
*|I (MX82/M0#s MX82/M0 s X 0 2.2705 3.2800)
*|I (MX69/M0#s MX69/M0 s X 0 9.7895 3.2400)
*|I (MX68/M0#s MX68/M0 s X 0 9.5105 3.2400)
*|I (MX67/M0#s MX67/M0 s X 0 8.4095 3.2800)
*|I (MX66/M0#s MX66/M0 s X 0 0.5505 3.2800)
*|I (MX65/M0#s MX65/M0 s X 0 8.1305 3.2800)
*|I (MX64/M0#s MX64/M0 s X 0 4.7895 3.2800)
*|I (MX63/M0#s MX63/M0 s X 0 2.5495 3.2800)
*|I (MM0#s MM0 s X 0 0.8295 3.2800)
*|S (VDD#1 10.5795 4.1400)
*|S (VDD#2 9.6500 4.1400)
*|S (VDD#3 8.7400 4.1400)
*|S (VDD#4 8.7400 4.1400)
*|S (VDD#6 8.2700 4.1400)
*|S (VDD#7 7.3200 4.1400)
*|S (VDD#8 5.6000 4.1400)
*|S (VDD#9 4.6500 4.1400)
*|S (VDD#10 3.6800 4.1400)
*|S (VDD#12 2.4100 4.1400)
*|S (VDD#13 0.6900 4.1400)
*|S (VDD#14 0.0000 4.1400)
*|S (VDD#16 9.6500 3.2400)
*|S (VDD#18 8.2700 3.2800)
*|S (VDD#20 7.3200 3.2800)
*|S (VDD#22 5.6000 3.2800)
*|S (VDD#24 4.6500 3.2800)
*|S (VDD#26 2.4100 3.2800)
*|S (VDD#28 0.6900 3.2800)
*|S (VDD#29 8.7400 4.1400)
*|S (VDD#30 3.6800 4.1400)
CG1 MX66/M0#s VSS 1.6166e-18
CG2 MX69/M0#s VSS 8.34927e-19
CG3 MX82/M0#s VSS 6.72919e-19
CG4 MX83/M0#s VSS 2.88007e-18
CG5 MX96/M0#s VSS 2.08752e-18
CG6 VDD#30 VSS 1.48381e-17
CG7 VDD#29 VSS 2.89311e-18
CG8 VDD#13 VSS 6.38198e-18
CG9 VDD#12 VSS 1.46792e-18
CG10 VDD#9 VSS 1.1597e-18
CG11 VDD#8 VSS 5.11967e-18
CG12 VDD#7 VSS 5.77732e-18
CG13 VDD#6 VSS 1.42468e-18
CG14 VDD#2 VSS 2.53966e-18
CG15 VDD#1 VSS 1.82427e-18
CG16 VDD#14 VSS 8.36523e-19
CG17 VDD#4 VSS 6.27221e-19
CG18 VDD VSS 8.66719e-18
CG19 VDD#30 46 6.45508e-18
CG20 MX97/M0#s 46 3.37443e-17
CG21 VDD 46 4.05582e-18
CG22 VDD#7 46 6.06011e-18
CG23 VDD#9 42 3.25039e-18
CG24 VDD 42 3.6742e-18
CG25 MX66/M0#s 34 2.87719e-17
CG26 VDD 38 6.62178e-18
CG27 VDD 34 3.17018e-18
CG28 VDD#30 42 4.46871e-18
CG29 VDD#12 38 6.13168e-18
CG30 VDD#30 38 4.77261e-18
CG31 VDD#30 34 7.32447e-18
CG32 MX83/M0#s 42 3.1145e-17
CG33 VDD#13 34 6.06011e-18
CG34 VDD#4 42 2.85748e-18
CG35 MX82/M0#s 38 2.88854e-17
CG36 VDD#29 30#12 5.27101e-18
CG37 VDD#2 30 4.34129e-18
CG38 VDD#29 30#16 4.30564e-18
CG39 VDD#29 30 4.25349e-18
CG40 VDD#6 30#18 3.63518e-18
CG41 VDD#6 30#12 3.49353e-18
CG42 MX69/M0#s 30 1.13636e-17
CG43 VDD 30 1.29165e-17
CG44 MX67/M0#s 30#18 1.21451e-17
CG45 VDD 30#18 1.02005e-17
CG46 MX67/M0#s 30#12 2.91797e-17
CG47 MX97/M0#s 30#12 2.33538e-17
CG48 VDD#29 30#18 2.42216e-17
CG49 MX97/M0#s 30#18 1.20437e-17
CG50 MX69/M0#s 30#16 8.1612e-18
CG51 VDD 30#12 1.29812e-17
CG52 VDD 8#31 6.45304e-18
CG53 VDD#4 8#31 6.0733e-18
CG54 VDD#4 8#39 5.78514e-18
CG55 VDD#29 8#31 5.5558e-18
CG56 VDD#29 MX65/M0#g 5.21861e-18
CG57 VDD#2 MX68/M0#g 4.34129e-18
CG58 VDD#6 MX65/M0#g 4.31255e-18
CG59 VDD#29 MX68/M0#g 4.30736e-18
CG60 VDD#7 8 4.08409e-18
CG61 VDD#29 8 2.71368e-18
CG62 MX97/M0#s MX65/M0#g 2.66612e-18
CG63 MX67/M0#s MX65/M0#g 9.16933e-18
CG64 MX97/M0#s 8 1.0052e-17
CG65 VDD MX65/M0#g 1.16474e-17
CG66 VDD 8 1.16918e-17
CG67 VDD#29 8#39 2.42216e-17
CG68 MX67/M0#s 8#31 2.90333e-17
CG69 VDD MX68/M0#g 1.28365e-17
CG70 MX67/M0#s 8#39 1.07932e-17
CG71 MX69/M0#s MX68/M0#g 1.02324e-17
CG72 VDD 8#39 8.65328e-18
CG73 MX67/M0#s 7#16 6.8771e-18
CG74 VDD#30 MX87/M0#d 6.00165e-18
CG75 VDD#29 7 5.21861e-18
CG76 VDD 7#18 4.06993e-18
CG77 VDD#8 MX87/M0#d 3.64784e-18
CG78 VDD#7 MX87/M0#d 3.6243e-18
CG79 VDD 7#12 3.26881e-18
CG80 VDD#4 7 2.46648e-18
CG81 VDD#29 7#17 2.3991e-18
CG82 VDD#30 7#17 2.32548e-18
CG83 MX97/M0#s 7#18 1.68529e-18
CG84 VDD 7#19 1.68065e-18
CG85 VDD 7#17 2.55577e-17
CG86 VDD#29 7#16 7.94089e-18
CG87 VDD 7 1.32687e-17
CG88 VDD#30 7#18 1.37392e-17
CG89 MX97/M0#s 7#17 1.2719e-17
CG90 MX67/M0#s 7 9.16933e-18
CG91 VDD 7#16 4.23275e-17
CG92 VDD#8 MX96/M0#d 6.06011e-18
CG93 VDD#30 MX96/M0#d 6.02107e-18
CG94 VDD#9 6 3.77064e-18
CG95 MX96/M0#s 6#18 3.33338e-18
CG96 VDD 6#12 3.26683e-18
CG97 VDD 6#18 3.14812e-18
CG98 VDD#8 6#18 2.88248e-18
CG99 VDD#30 6 2.59032e-18
CG100 VDD#30 6#18 1.37392e-17
CG101 VDD 6#17 2.3369e-17
CG102 MX96/M0#s 6#12 1.17256e-17
CG103 MX96/M0#s MX96/M0#d 1.64784e-17
CG104 VDD 6 7.51351e-18
CG105 VDD 6#16 1.9896e-17
CG106 MX83/M0#s 6 8.67644e-18
CG107 VDD 5#31 9.60091e-18
CG108 MX96/M0#s 5#25 8.64641e-18
CG109 MX83/M0#s 5#37 7.33524e-18
CG110 VDD 5#32 7.2872e-18
CG111 VDD 5#38 6.85992e-18
CG112 VDD 5#41 6.69929e-18
CG113 VDD#30 MX87/M0#g 5.21861e-18
CG114 VDD#30 5 5.21861e-18
CG115 VDD#7 MX87/M0#g 5.04997e-18
CG116 VDD#4 5 5.04997e-18
CG117 MX96/M0#s 5#37 4.61388e-18
CG118 VDD#30 MX64/M0#d 4.46871e-18
CG119 VDD#9 MX64/M0#d 3.51232e-18
CG120 VDD#30 5#30 3.35579e-18
CG121 VDD 5#25 2.57548e-18
CG122 VDD#7 5#41 2.27999e-18
CG123 VDD#30 5#32 2.26391e-18
CG124 VDD#4 5#30 1.97099e-18
CG125 VDD#30 5#31 1.95251e-18
CG126 MX97/M0#s MX87/M0#g 1.83649e-18
CG127 VDD#30 5#41 1.03936e-17
CG128 MX83/M0#s 5#25 1.17361e-17
CG129 VDD 5#29 1.78836e-17
CG130 MX83/M0#s MX64/M0#d 1.63424e-17
CG131 MX83/M0#s 5#29 2.79275e-17
CG132 VDD MX87/M0#g 1.60341e-17
CG133 VDD 5 1.60341e-17
CG134 MX96/M0#s MX64/M0#d 1.22819e-17
CG135 VDD 5#30 2.30867e-17
CG136 VDD#9 4#19 7.42383e-18
CG137 VDD#4 MX86/M0#d 7.38183e-18
CG138 VDD 4#16 7.27123e-18
CG139 VDD#8 4#18 7.22395e-18
CG140 VDD#30 4 5.21861e-18
CG141 VDD#8 4 5.04997e-18
CG142 VDD#30 MX86/M0#d 4.48317e-18
CG143 VDD 4#17 3.57596e-18
CG144 MX97/M0#s 4#18 3.0534e-18
CG145 VDD#9 4#18 3.04585e-18
CG146 VDD 4#18 2.47804e-17
CG147 MX96/M0#s 4#17 2.22736e-17
CG148 VDD#30 4#19 9.26657e-17
CG149 MX96/M0#s 4 9.89405e-18
CG150 VDD 4 1.60341e-17
CG151 VDD#30 4#18 6.33681e-17
CG152 MX96/M0#s 4#18 4.26131e-17
CG153 VDD#4 4#19 9.24121e-18
CG154 MX83/M0#s 4#19 3.60392e-17
CG155 VDD 4#19 1.63386e-17
CG156 VDD MX64/M0#g 7.51351e-18
CG157 VDD 3#41 6.68789e-18
CG158 VDD#12 MX63/M0#d 6.13168e-18
CG159 MX82/M0#s 3#41 5.83782e-18
CG160 VDD#8 MM2#g 5.77573e-18
CG161 VDD#30 MM2#g 5.21861e-18
CG162 VDD#4 3 5.04997e-18
CG163 VDD 3#33 4.75601e-18
CG164 VDD#30 MX63/M0#d 4.48317e-18
CG165 VDD#9 MX64/M0#g 3.77064e-18
CG166 VDD#30 3 2.59032e-18
CG167 MX96/M0#s MX64/M0#g 2.38458e-18
CG168 VDD#30 MX64/M0#g 2.3097e-18
CG169 VDD 3#42 9.0913e-18
CG170 MX82/M0#s 3#33 1.17361e-17
CG171 VDD MM2#g 1.34714e-17
CG172 MX82/M0#s MX63/M0#d 1.63424e-17
CG173 MX83/M0#s MX64/M0#g 9.10442e-18
CG174 VDD 3 9.61815e-18
CG175 VDD#4 2#13 8.4419e-18
CG176 VDD#12 2#13 7.58073e-18
CG177 VDD#4 MX62/M0#s 7.38183e-18
CG178 MX66/M0#s 2#14 5.47241e-18
CG179 VDD#30 MX62/M0#s 4.48317e-18
CG180 VDD#30 2 4.46871e-18
CG181 VDD 2#9 3.86405e-18
CG182 VDD#13 2 3.69092e-18
CG183 VDD#12 2 3.6671e-18
CG184 VDD#30 2#13 7.84027e-17
CG185 VDD#30 2#14 7.71051e-17
CG186 VDD#12 2#14 1.14457e-17
CG187 MX82/M0#s 2#14 1.90128e-17
CG188 MX82/M0#s 2#13 1.31659e-17
CG189 VDD 2#14 1.91324e-17
CG190 VDD 2#13 3.01956e-17
CG191 VDD#12 1 5.04997e-18
CG192 VDD 1#14 4.86112e-18
CG193 VDD#14 MX66/M0#d 4.65982e-18
CG194 VDD#30 1#20 4.41176e-18
CG195 VDD#30 1 2.59032e-18
CG196 MX82/M0#s 1 1.71567e-18
CG197 VDD#14 1#22 1.51376e-18
CG198 VDD#13 MX66/M0#d 1.37676e-18
CG199 VDD#30 1#21 5.94049e-18
CG200 VDD 1#22 1.66368e-17
CG201 VDD MX66/M0#d 1.08956e-17
CG202 VDD 1#21 2.63208e-17
CG203 VDD#30 1#22 1.37392e-17
CG204 MX66/M0#s 1#22 5.99802e-18
CG205 MX66/M0#s 1#14 1.17245e-17
CG206 VDD 1 9.61815e-18
CG207 MX66/M0#s MX66/M0#d 1.91315e-17
CG208 VDD 1#20 2.60521e-17
CG209 VDD#30 MX66/M0#d 6.00165e-18
CG210 MX66/M0#s 1#21 2.82162e-17
CG211 VDD 1#23 3.30267e-17
RfG54 VDD#1 VDD#2 47.315212 $L=0.9295 $W=0.25
RfG55 VDD#2 VDD#3 46.316811 $L=0.91 $W=0.25
RfG56 VDD#3 VDD#6 23.788811 $L=0.47 $W=0.25
RfG57 VDD#6 VDD#7 48.089619 $L=0.95 $W=0.25
RfG58 VDD#7 VDD#8 87.513618 $L=1.72 $W=0.25
RfG59 VDD#8 VDD#9 48.089619 $L=0.95 $W=0.25
RfG60 VDD#9 VDD#10 49.388809 $L=0.97 $W=0.25
RfG61 VDD#10 VDD#12 64.748810 $L=1.27 $W=0.25
RfG62 VDD#12 VDD#13 87.513618 $L=1.72 $W=0.25
RfG63 VDD#13 VDD#14 35.052811 $L=0.69 $W=0.25
RfG64 VDD#2 VDD#16 61.156857 $L=0.9 $W=0.17
RfG65 VDD#6 VDD#18 58.145092 $L=0.86 $W=0.17
RfG66 VDD#7 VDD#20 58.145092 $L=0.86 $W=0.17
RfG67 VDD#8 VDD#22 58.145092 $L=0.86 $W=0.17
RfG68 VDD#9 VDD#24 58.145092 $L=0.86 $W=0.17
RfG69 VDD#12 VDD#26 58.145092 $L=0.86 $W=0.17
RfG70 VDD#13 VDD#28 58.145092 $L=0.86 $W=0.17
ReG71 VDD#29 VDD 1.223438 $L=3.915 $W=0.4
ReG72 VDD VDD#30 0.357812 $L=1.145 $W=0.4
Rh_1_G73 VDD#4 VDD#3 2.142857 $A=0.2023
Rh_1_G74 VDD#4 VDD#10 1.000000 $A=0.4335
Rh_2_G75 MX69/M0#s VDD#16 15.000000 $A=0.0289
Rh_2_G76 MX67/M0#s VDD#18 15.000000 $A=0.0289
Rh_2_G77 MX97/M0#s VDD#20 15.000000 $A=0.0289
Rh_2_G78 MX96/M0#s VDD#22 15.000000 $A=0.0289
Rh_2_G79 MX83/M0#s VDD#24 15.000000 $A=0.0289
Rh_2_G80 MX82/M0#s VDD#26 15.000000 $A=0.0289
Rh_2_G81 MX66/M0#s VDD#28 15.000000 $A=0.0289
RjG82 VDD#3 VDD#29 21.714285 $A=0.2023
RjG83 VDD#10 VDD#30 10.133333 $A=0.4335
RmwG84 MX68/M0#s MX69/M0#s 0.001000 $W=1000000
RmwG85 MX65/M0#s MX67/M0#s 0.001000 $W=1000000
RmwG86 MX64/M0#s MX83/M0#s 0.001000 $W=1000000
RmwG87 MX63/M0#s MX82/M0#s 0.001000 $W=1000000
RmwG88 MM0#s MX66/M0#s 0.001000 $W=1000000
*
*|NET D 5.43993e-16
*|P (D X 0 0.9350 2.7450)
*|I (MX61/M0#g MX61/M0 g X 0 0.9050 0.8000)
*|I (MM0#g MM0 g X 0 0.9050 3.2800)
*|S (D#8 0.9050 2.3100)
*|S (D#9 0.9050 2.1450)
*|S (D#10 0.9200 2.3100)
*|S (D#11 0.9050 2.3100)
*|S (D#12 0.9200 2.3100)
CB1 MM0#g VSS 3.70692e-18
CB2 MX61/M0#g VSS 2.37086e-17
CB3 D#12 VSS 8.74219e-19
CB4 D#11 VSS 6.24504e-18
CB5 D VSS 1.95477e-18
CB6 MM0#g 34 7.7463e-18
CB7 D 34 2.47921e-17
CB8 D 2#3 1.89657e-18
CB9 D 2 1.69088e-18
CB10 MX61/M0#g MX89/M0#d 1.31748e-18
CB11 D#11 2#14 1.28356e-17
CB12 D#12 2#14 3.10897e-17
CB13 D 2#14 5.05578e-17
CB14 D#12 1#20 2.40416e-18
CB15 MX61/M0#g MX72/M0#d 1.54951e-18
CB16 D#12 1#23 2.93152e-17
CB17 MM0#g 1#21 4.4114e-18
CB18 D MX66/M0#d 3.12514e-18
CB19 MX61/M0#g 1#18 6.95097e-18
CB20 D 1#23 1.48731e-17
CB21 D 1#22 2.34256e-17
CB22 D#11 1#23 7.96606e-18
CB23 D 1#21 1.46573e-17
CB24 D#11 1#20 2.84674e-17
CB25 D 1#14 2.8936e-18
CB26 D 1#20 6.04227e-18
CB27 D#12 1#21 5.00056e-18
CB28 D#11 1#21 2.63815e-17
CB29 MX61/M0#g VSS#30 2.9814e-18
CB30 MX61/M0#g MX72/M0#s 7.17494e-18
CB31 MX61/M0#g VSS#13 4.87612e-18
CB32 D VDD 2.16617e-18
CB33 MM0#g VDD#13 3.77064e-18
CB34 D VDD#30 2.18194e-17
CB35 MM0#g MX66/M0#s 8.68788e-18
CB36 D#12 VDD 4.56917e-18
CB37 D MX66/M0#s 2.1183e-17
CB38 MM0#g VDD 1.43761e-17
CB39 D VDD#13 3.31207e-18
CB40 MM0#g VDD#30 3.12331e-18
CB41 D#11 VDD 2.02041e-17
CB42 D#12 SE#23 2.37076e-18
CB43 MX61/M0#g SE#23 1.73105e-18
CB44 D#11 SE#22 1.5503e-17
CB45 D#11 SE#25 6.64821e-18
CB46 D#11 SE 3.01761e-18
CB47 D#11 SE#23 9.99941e-18
CB48 D#12 SE 3.53236e-17
CB49 D#11 SE#21 5.27518e-18
RgB8 MM0#g D#8 292.852417 $L=0.97 $W=0.15
RgB9 D#8 D#9 34.134449 $L=0.1645 $W=0.27
RgB10 D#9 MX61/M0#g 432.237946 $L=1.345 $W=0.15
RfB11 D#10 D#11 1.129412 $L=0.015 $W=0.17
ReB12 D D#12 0.209135 $L=0.435 $W=0.26
RjB13 D#10 D#12 152.000000 $A=0.0289
RiB14 D#8 D#11 15.000000 $A=0.0289
*
*|NET QN 6.22897e-16
*|P (QN X 0 10.1350 2.1100)
*|I (MX74/M0#d MX74/M0 d X 0 9.9405 0.8000)
*|I (MX69/M0#d MX69/M0 d X 0 9.9405 3.2400)
*|S (QN#2 10.0800 3.2400)
*|S (QN#3 10.0800 2.9450)
*|S (QN#4 10.0800 1.0000)
*|S (QN#6 10.0800 0.8000)
*|S (QN#7 10.0800 1.0000)
*|S (QN#8 10.0800 2.9450)
CD1 MX74/M0#d VSS 2.17133e-17
CD2 QN#8 VSS 6.75301e-19
CD3 QN#7 VSS 5.24389e-17
CD4 QN#3 VSS 2.51265e-18
CD5 QN VSS 1.62573e-17
CD6 QN#3 30 1.14028e-17
CD7 QN#7 30#16 1.65615e-17
CD8 MX74/M0#d 30#16 1.04209e-17
CD9 QN#3 30#16 7.02027e-18
CD10 QN 30#16 3.30955e-17
CD11 MX74/M0#d MX74/M0#g 8.12401e-18
CD12 QN#3 MX68/M0#g 2.30855e-18
CD13 MX74/M0#d MX80/M0#g 1.64422e-18
CD14 QN#7 8#32 5.30164e-18
CD15 QN#7 VSS#1 2.95516e-18
CD16 MX74/M0#d VSS#29 6.00013e-18
CD17 QN#7 MX80/M0#s 8.97018e-18
CD18 QN#7 VSS#29 2.79561e-17
CD19 QN#7 VSS#2 4.62475e-18
CD20 MX74/M0#d MX80/M0#s 2.28702e-17
CD21 MX74/M0#d VSS#2 4.25463e-18
CD22 QN#8 VDD#1 2.91847e-18
CD23 QN#8 VDD 5.43391e-17
CD24 QN#8 MX69/M0#s 1.24064e-17
CD25 QN#8 VDD#29 2.71687e-17
CD26 QN VDD 1.13963e-17
CD27 QN#3 MX69/M0#s 3.19772e-17
CD28 QN#3 VDD 2.64807e-17
CD29 QN#3 VDD#2 4.29239e-18
CD30 QN#3 VDD#29 6.20251e-18
CD31 QN#8 VDD#2 4.54184e-18
RfD23 QN#2 QN#3 22.211765 $L=0.295 $W=0.17
RfD24 QN#4 QN#6 15.058825 $L=0.2 $W=0.17
ReD25 QN QN#7 0.402174 $L=1.11 $W=0.345
ReD26 QN QN#8 0.302536 $L=0.835 $W=0.345
RhD27 MX74/M0#d QN#6 15.000000 $A=0.0289
Rh_2_D28 MX69/M0#d QN#2 15.000000 $A=0.0289
RjD29 QN#4 QN#7 76.000000 $A=0.0578
RjD30 QN#3 QN#8 50.666668 $A=0.0867
*
*|NET SI 4.65285e-16
*|P (SI X 0 2.3150 2.3750)
*|I (MX70/M0#g MX70/M0 g X 0 2.1950 0.8000)
*|I (MX82/M0#g MX82/M0 g X 0 2.1950 3.2800)
*|S (SI#8 2.1950 1.9700)
*|S (SI#9 2.1950 1.8050)
*|S (SI#10 2.3000 1.9700)
*|S (SI#11 2.1950 1.9700)
*|S (SI#12 2.3000 1.9700)
CF1 MX82/M0#g VSS 3.93894e-18
CF2 MX70/M0#g VSS 9.69801e-18
CF3 SI#12 VSS 5.57288e-18
CF4 SI#11 VSS 2.30704e-17
CF5 SI VSS 4.53991e-18
CF6 SI 38 5.65644e-18
CF7 SI#11 38 4.44985e-18
CF8 SI#11 36 7.38691e-18
CF9 MX70/M0#g 36 6.21439e-18
CF10 MX82/M0#g 38 7.73068e-18
CF11 SI 3#33 1.84518e-18
CF12 MX70/M0#g MX77/M0#d 1.31748e-18
CF13 SI#12 3#42 3.53685e-17
CF14 SI 3#42 2.43488e-17
CF15 SI 3#41 3.95765e-17
CF16 SI#11 3#42 3.13509e-18
CF17 SI#12 3#40 3.68278e-18
CF18 SI#11 3#40 1.20735e-17
CF19 MX82/M0#g 2#14 2.11248e-18
CF20 MX70/M0#g MX89/M0#d 1.31748e-18
CF21 SI 2#3 1.23565e-18
CF22 SI 2#14 5.81147e-17
CF23 SI#11 2#15 3.23919e-18
CF24 SI#11 2#14 7.32785e-18
CF25 SI#12 2#14 1.24229e-17
CF26 SI#12 2#15 1.03464e-17
CF27 SI#11 1#20 9.24749e-18
CF28 SI 1#20 1.25431e-17
CF29 SI#11 VSS#30 4.55576e-18
CF30 MX70/M0#g MX77/M0#s 7.18778e-18
CF31 MX70/M0#g VSS#12 3.90205e-18
CF32 MX70/M0#g VSS#30 2.71481e-18
CF33 SI#12 VDD 2.31025e-18
CF34 SI#11 MX82/M0#s 1.55377e-18
CF35 MX82/M0#g MX82/M0#s 8.68341e-18
CF36 MX82/M0#g VDD 6.99704e-18
CF37 MX82/M0#g VDD#30 2.59032e-18
CF38 MX82/M0#g VDD#12 4.31255e-18
CF39 SI VDD 1.10692e-17
CF40 SI MX82/M0#s 1.72428e-17
RgF47 MX82/M0#g SI#8 402.105774 $L=1.31 $W=0.15
RgF48 SI#8 SI#9 34.134449 $L=0.1645 $W=0.27
RgF49 SI#9 MX70/M0#g 322.984650 $L=1.005 $W=0.15
RfF50 SI#10 SI#11 7.905882 $L=0.105 $W=0.17
ReF51 SI SI#12 0.194712 $L=0.405 $W=0.26
RjF52 SI#10 SI#12 152.000000 $A=0.0289
RiF53 SI#8 SI#11 15.000000 $A=0.0289
*
*|NET 5 2.0791e-15
*|I (MX99/M0#g MX99/M0 g X 0 4.0050 0.8000)
*|I (MX81/M0#g MX81/M0 g X 0 6.2450 0.8000)
*|I (MX78/M0#d MX78/M0 d X 0 4.9405 0.8000)
*|I (MX87/M0#g MX87/M0 g X 0 6.6750 3.2800)
*|I (MX64/M0#d MX64/M0 d X 0 4.9405 3.2800)
*|I (MX62/M0#g MX62/M0 g X 0 3.5750 3.2800)
*|S (5 3.5750 3.2800)
*|S (5#15 3.5750 2.8145)
*|S (5#16 3.5750 2.6500)
*|S (5#17 4.0050 1.1250)
*|S (5#18 4.0050 1.2900)
*|S (5#19 6.2450 1.1250)
*|S (5#20 6.2450 1.2900)
*|S (5#21 6.6750 2.8145)
*|S (5#22 6.6750 2.6500)
*|S (5#24 5.0800 3.2800)
*|S (5#25 5.0800 3.0900)
*|S (5#26 5.0800 0.8500)
*|S (5#28 5.0800 0.8000)
*|S (5#29 5.0800 2.6500)
*|S (5#30 3.5750 2.6500)
*|S (5#31 6.8900 2.6500)
*|S (5#32 6.6750 2.6500)
*|S (5#33 6.8900 1.2900)
*|S (5#34 6.2450 1.2900)
*|S (5#35 5.0800 1.2900)
*|S (5#36 4.0050 1.2900)
*|S (5#37 5.0800 3.0900)
*|S (5#38 5.0800 2.6500)
*|S (5#39 5.0800 1.2900)
*|S (5#40 5.0800 0.8500)
*|S (5#41 6.8900 2.6500)
*|S (5#42 6.8900 1.2900)
CM1 MX64/M0#d VSS 3.79783e-18
CM2 MX87/M0#g VSS 5.2355e-18
CM3 MX78/M0#d VSS 2.52228e-18
CM4 MX81/M0#g VSS 2.07769e-17
CM5 MX99/M0#g VSS 2.14348e-17
CM6 5#42 VSS 1.16971e-17
CM7 5#41 VSS 4.88419e-18
CM8 5#40 VSS 1.54863e-18
CM9 5#39 VSS 1.2649e-17
CM10 5#37 VSS 2.11823e-18
CM11 5#36 VSS 2.82715e-17
CM12 5#34 VSS 2.01942e-17
CM13 5#32 VSS 2.4625e-18
CM14 5#30 VSS 3.15028e-18
CM15 5#35 VSS 2.7562e-17
CM16 5#29 VSS 4.04925e-18
CM17 5#25 VSS 1.50835e-18
CM18 5#33 VSS 1.58534e-17
CM19 5#31 VSS 1.61772e-18
CM20 5 VSS 8.93609e-18
CM21 5#41 46 9.51532e-18
CM22 5#31 46 2.15236e-17
CM23 MX87/M0#g 46 7.70836e-18
CM24 5#42 44 8.82903e-18
CM25 5#33 44 2.13602e-17
CM26 MX81/M0#g 44 1.28937e-18
CM27 5#30 42 1.93646e-17
CM28 5#37 42 1.62736e-18
CM29 5#36 40 2.48809e-17
CM30 5#40 40 1.57665e-18
CM31 MX99/M0#g 40 6.21439e-18
CM32 5 42 1.54669e-18
CM33 5#33 MX79/M0#d 4.72106e-18
CM34 5#31 30#18 4.06858e-18
CM35 5#33 30#20 4.0126e-18
CM36 5#31 30#12 3.10989e-18
CM37 5#42 MX79/M0#d 2.36141e-18
CM38 5#41 30#19 1.06984e-17
CM39 5#41 30#18 1.38704e-17
CM40 5#42 30#20 1.51698e-17
CM41 5#42 30#19 1.16649e-17
CM42 5#33 MX76/M0#g 5.253e-18
CM43 5#31 8 5.15706e-18
CM44 5#33 8#35 1.98449e-17
CM45 5#42 8#35 2.03719e-17
CM46 5#33 7#20 6.58686e-18
CM47 MX81/M0#g MX98/M0#d 6.2356e-18
CM48 5#32 7#18 5.44313e-18
CM49 MX87/M0#g MX87/M0#d 4.57251e-18
CM50 MX87/M0#g 7#12 3.15253e-18
CM51 5#33 7#17 3.00554e-18
CM52 5#41 7#18 1.64292e-17
CM53 5#34 MX98/M0#d 2.13458e-17
CM54 5#42 7#20 5.03526e-17
CM55 5#42 7#19 4.01073e-17
CM56 5#34 7#20 1.87869e-17
CM57 5#32 7#17 2.8044e-17
CM58 5#32 7#19 7.53731e-18
CM59 5#31 7#17 2.63068e-17
CM60 5#41 7#17 3.15196e-17
CM61 5#41 7#19 7.17617e-17
CM62 5#32 7#12 1.35469e-17
CM63 MX81/M0#g MX81/M0#d 6.2356e-18
CM64 5#32 6#19 2.26071e-18
CM65 MX78/M0#d 6#20 1.35075e-18
CM66 MX78/M0#d MX71/M0#g 1.31748e-18
CM67 5#40 MX81/M0#d 1.13452e-18
CM68 MX81/M0#g 6#20 1.11336e-18
CM69 5#29 6#17 7.20323e-17
CM70 5#34 MX81/M0#d 2.13458e-17
CM71 5#29 6 6.79518e-18
CM72 5#29 6#16 7.08766e-18
CM73 5#38 6#19 1.16477e-17
CM74 5#34 6#20 3.50598e-17
CM75 5#39 6#20 1.41246e-17
CM76 5#30 6#17 1.10881e-17
CM77 5#36 MX71/M0#g 9.50937e-18
CM78 5#38 6#17 2.84326e-17
CM79 5#39 6#19 1.11962e-17
CM80 5#40 6#20 1.20381e-17
CM81 5#35 VSS#30 8.74988e-18
CM82 5#34 MX75/M0#s 8.32834e-18
CM83 5#40 MX78/M0#s 7.61311e-18
CM84 5#36 VSS#30 7.57508e-18
CM85 5#40 MX75/M0#s 6.98824e-18
CM86 5#34 VSS#30 5.67211e-18
CM87 MX78/M0#d VSS#30 5.34191e-18
CM88 5#33 VSS#30 5.32386e-18
CM89 MX81/M0#g VSS#8 4.87612e-18
CM90 MX99/M0#g VSS#4 4.87612e-18
CM91 MX81/M0#g VSS#30 4.8201e-18
CM92 MX99/M0#g VSS#30 4.8201e-18
CM93 MX78/M0#d VSS#9 3.44809e-18
CM94 5#40 VSS#9 2.8248e-18
CM95 5#34 VSS#8 2.80283e-18
CM96 5#33 VSS#7 2.41518e-18
CM97 5#42 VSS#7 2.24474e-18
CM98 5#35 VSS#8 1.84211e-18
CM99 5#40 VSS#8 1.77135e-18
CM100 5#35 MX75/M0#s 1.97969e-17
CM101 MX78/M0#d MX75/M0#s 1.51502e-17
CM102 MX78/M0#d MX78/M0#s 2.02979e-17
CM103 5#42 VSS#30 1.19414e-17
CM104 5#35 MX78/M0#s 2.18448e-17
CM105 5#40 VSS#30 2.07771e-17
RgM207 5 5#15 149.464630 $L=0.465 $W=0.15
RgM208 5#15 5#16 34.134449 $L=0.1645 $W=0.27
RgM209 MX99/M0#g 5#17 104.477959 $L=0.325 $W=0.15
RgM210 5#17 5#18 34.134449 $L=0.1645 $W=0.27
RgM211 MX81/M0#g 5#19 104.477959 $L=0.325 $W=0.15
RgM212 5#19 5#20 34.134449 $L=0.1645 $W=0.27
RgM213 MX87/M0#g 5#21 149.464630 $L=0.465 $W=0.15
RgM214 5#21 5#22 34.134449 $L=0.1645 $W=0.27
RfM215 5#24 5#25 14.305882 $L=0.19 $W=0.17
RfM216 5#26 5#28 3.764706 $L=0.05 $W=0.17
RfM217 5#29 5#30 113.317642 $L=1.505 $W=0.17
RfM218 5#31 5#32 16.188236 $L=0.215 $W=0.17
RfM219 5#33 5#34 48.564705 $L=0.645 $W=0.17
RfM220 5#34 5#35 87.717644 $L=1.165 $W=0.17
RfM221 5#35 5#36 80.941177 $L=1.075 $W=0.17
ReM222 5#37 5#38 0.239130 $L=0.44 $W=0.23
ReM223 5#38 5#39 0.739130 $L=1.36 $W=0.23
ReM224 5#39 5#40 0.239130 $L=0.44 $W=0.23
ReM225 5#41 5#42 0.739130 $L=1.36 $W=0.23
RhM226 MX78/M0#d 5#28 15.000000 $A=0.0289
Rh_2_M227 MX64/M0#d 5#24 15.000000 $A=0.0289
RjM228 5#25 5#37 152.000000 $A=0.0289
RjM229 5#29 5#38 152.000000 $A=0.0289
RjM230 5#35 5#39 152.000000 $A=0.0289
RjM231 5#26 5#40 152.000000 $A=0.0289
RjM232 5#31 5#41 152.000000 $A=0.0289
RjM233 5#33 5#42 152.000000 $A=0.0289
RiM234 5#16 5#30 15.000000 $A=0.0289
RiM235 5#22 5#32 15.000000 $A=0.0289
RiM236 5#20 5#34 15.000000 $A=0.0289
RiM237 5#18 5#36 15.000000 $A=0.0289
RmwM238 MX62/M0#g 5 0.001000 $W=1000000
*
*|NET CK 5.11594e-16
*|P (CK X 0 2.3150 1.2650)
*|I (MX77/M0#g MX77/M0 g X 0 2.6250 0.8000)
*|I (MX63/M0#g MX63/M0 g X 0 2.6250 3.2800)
*|S (CK#8 2.6250 1.2900)
*|S (CK#9 2.6250 1.1250)
*|S (CK#10 2.6250 1.2900)
*|S (CK#11 2.3000 1.2900)
*|S (CK#12 2.3000 1.2900)
CA1 MX63/M0#g VSS 3.02461e-18
CA2 MX77/M0#g VSS 1.74605e-17
CA3 CK#10 VSS 1.54357e-17
CA4 CK#11 VSS 1.4459e-17
CA5 CK VSS 2.91582e-17
CA6 MX77/M0#g 36 1.10002e-18
CA7 CK 36 1.15975e-17
CA8 MX77/M0#g 3#40 1.8002e-18
CA9 MX63/M0#g 3#40 2.85079e-18
CA10 CK#10 3#43 1.75408e-17
CA11 MX77/M0#g MX77/M0#d 7.13214e-18
CA12 CK 3#43 5.2252e-17
CA13 CK 3#42 2.7851e-17
CA14 CK#10 3#40 5.92998e-18
CA15 MX63/M0#g 3#33 3.59e-18
CA16 MX63/M0#g MX63/M0#d 5.25617e-18
CA17 CK#10 MX77/M0#d 1.20501e-17
CA18 CK MX77/M0#d 4.61085e-18
CA19 MX77/M0#g MX84/M0#d 1.76427e-18
CA20 MX63/M0#g MX62/M0#s 1.28873e-18
CA21 CK MX84/M0#d 1.11123e-18
CA22 MX63/M0#g 2#9 8.42957e-19
CA23 CK 2#15 5.437e-17
CA24 MX63/M0#g 2#13 6.66167e-18
CA25 CK MX89/M0#d 3.20202e-18
CA26 CK#10 2#16 3.07011e-18
CA27 CK#11 2#15 3.53129e-18
CA28 CK MX78/M0#s 2.27729e-18
CA29 CK#11 VSS#30 1.64805e-18
CA30 MX77/M0#g MX77/M0#s 7.57466e-18
CA31 MX77/M0#g VSS#12 3.64084e-18
CA32 MX77/M0#g VSS#30 4.8201e-18
CA33 CK MX72/M0#s 4.76039e-18
CA34 CK MX77/M0#s 3.62647e-17
CA35 CK VSS#12 2.78061e-18
CA36 CK#11 MX77/M0#s 1.40576e-17
CA37 CK#10 VSS#30 2.81567e-18
CA38 CK VSS#30 3.15339e-17
CA39 CK#10 MX77/M0#s 8.85908e-18
CA40 MX63/M0#g VDD#30 2.59032e-18
CA41 MX63/M0#g VDD#12 4.31255e-18
CA42 MX63/M0#g VDD 5.91821e-18
CA43 MX63/M0#g MX82/M0#s 9.10442e-18
CA44 CK#10 SI#11 2.27521e-18
CA45 CK SI#11 6.35411e-18
CA46 CK SI#12 3.72165e-17
CA47 CK#11 MX70/M0#g 5.6221e-18
CA48 CK#11 SI#11 8.22564e-18
RgA1 MX63/M0#g CK#8 620.612427 $L=1.99 $W=0.15
RgA2 CK#8 CK#9 34.134449 $L=0.1645 $W=0.27
RgA3 CK#9 MX77/M0#g 104.477959 $L=0.325 $W=0.15
RfA4 CK#10 CK#11 24.470589 $L=0.325 $W=0.17
ReA5 CK CK#12 0.012019 $L=0.025 $W=0.26
RjA6 CK#11 CK#12 152.000000 $A=0.0289
RiA7 CK#8 CK#10 15.000000 $A=0.0289
*
*|NET 30 1.22608e-15
*|I (MX79/M0#d MX79/M0 d X 0 7.9795 0.8000)
*|I (MX74/M0#g MX74/M0 g X 0 9.8650 0.8000)
*|I (MX69/M0#g MX69/M0 g X 0 9.8650 3.2400)
*|I (MX65/M0#d MX65/M0 d X 0 7.9795 3.2800)
*|S (30 9.8650 3.2400)
*|S (30#8 9.9550 1.7750)
*|S (30#9 9.8650 1.6400)
*|S (30#11 7.8400 3.2800)
*|S (30#12 7.8400 3.0250)
*|S (30#13 7.8400 1.0050)
*|S (30#15 7.8400 0.8000)
*|S (30#16 9.9550 1.7750)
*|S (30#17 7.8400 1.9700)
*|S (30#18 7.8400 3.0250)
*|S (30#19 7.8400 1.9700)
*|S (30#20 7.8400 1.0050)
CQ1 MX74/M0#g VSS 1.32405e-17
CQ2 MX79/M0#d VSS 1.53623e-17
CQ3 30#20 VSS 1.50388e-17
CQ4 30#19 VSS 4.04437e-18
CQ5 30#18 VSS 9.81294e-18
CQ6 30#16 VSS 4.34813e-17
CQ7 30#17 VSS 3.85554e-17
CQ8 30#12 VSS 5.48856e-18
CQ9 30 VSS 7.62543e-19
CQ10 MX79/M0#d VSS#29 5.56735e-18
CQ11 MX74/M0#g VSS#29 3.76812e-18
CQ12 30#16 VSS#29 3.76237e-18
CQ13 MX79/M0#d VSS#6 3.46337e-18
CQ14 30#20 VSS#6 3.30335e-18
CQ15 MX74/M0#g VSS#2 3.21822e-18
CQ16 30#20 MX76/M0#s 7.3198e-18
CQ17 30#20 VSS#29 2.15763e-17
CQ18 MX79/M0#d MX76/M0#s 1.73728e-17
CQ19 MX79/M0#d MX79/M0#s 2.0759e-17
CQ20 30#20 MX79/M0#s 7.98815e-18
CQ21 30#16 MX80/M0#s 8.1612e-18
CQ22 MX74/M0#g MX80/M0#s 8.41205e-18
RgQ298 30 30#8 447.091522 $L=1.465 $W=0.15
RgQ299 30#8 30#9 31.545456 $L=0.1345 $W=0.33
RgQ300 30#9 MX74/M0#g 269.956512 $L=0.84 $W=0.15
RfQ301 30#11 30#12 19.200001 $L=0.255 $W=0.17
RfQ302 30#13 30#15 15.435293 $L=0.205 $W=0.17
RfQ303 30#16 30#17 168.281143 $L=2.31 $W=0.17
ReQ304 30#18 30#19 0.573370 $L=1.055 $W=0.23
ReQ305 30#19 30#20 0.524457 $L=0.965 $W=0.23
RhQ306 MX79/M0#d 30#15 15.000000 $A=0.0289
Rh_2_Q307 MX65/M0#d 30#11 15.000000 $A=0.0289
RjQ308 30#12 30#18 76.000000 $A=0.0578
RjQ309 30#17 30#19 152.000000 $A=0.0289
RjQ310 30#13 30#20 76.000000 $A=0.0578
RiQ311 30#8 30#16 15.000000 $A=0.0289
RmwQ312 MX69/M0#g 30 0.001000 $W=1000000
*
*|NET VSS 3.20075e-15
*|P (VSS X 0 4.8250 0.0050)
*|I (MX80/M0#s MX80/M0 s X 0 9.5105 0.8000)
*|I (MX79/M0#s MX79/M0 s X 0 8.1305 0.8000)