*
*|DSPF 1.5
*
*|DATE "Fri Feb 28 12:19:51 2025"
*|VENDOR "Cadence Design Systems"
*|PROGRAM "Cadence Quantus Extraction"
*|VERSION "22.1.0-p089 Linux 64 bit - (Thu Jan 19 11:47:08 PST 2023)"
*|DESIGN "SDFFRX4_LP"
*|DIVIDER /
*|DELIMITER #
*|DeviceFingerDelim "@"
*|BUSBIT []
*|GLOBAL_TEMPERATURE 25
*|OPERATING_TEMPERATURE 25
** QRC_TECH_DIR /vols/wfo_devel/projects/reference_SKY130/tech/sky130_release_0.0.4/quantus/extraction/typical 
** HIERARCHICAL_SPLIT_PINS_DELIMITER '%'
** caps2d version: 10
*
.SUBCKT  SDFFRX4_LP CK D Q QN RN SE SI VDD VSS
*
*Net Section
*
*|GROUND_NET VSS
*
*|NET SE 7.54001e-16
*|P (SE X 0 0.9350 1.6500)
*|I (MX93/M0#g MX93/M0 g X 0 1.7650 0.8000)
*|I (MX82/M0#g MX82/M0 g X 0 0.4750 0.8000)
*|I (MX101/M0#g MX101/M0 g X 0 1.3350 3.2800)
*|I (MX72/M0#g MX72/M0 g X 0 0.4750 3.2800)
*|S (SE#15 0.4150 2.1345)
*|S (SE#16 0.4150 1.9700)
*|S (SE#17 0.4150 1.8050)
*|S (SE#18 1.7650 1.9700)
*|S (SE#19 1.4700 1.9700)
*|S (SE#20 1.4700 1.9700)
*|S (SE#21 1.2450 1.9050)
*|S (SE#22 0.9200 1.8400)
*|S (SE#23 0.6595 1.9050)
*|S (SE#24 0.4150 1.9700)
*|S (SE#25 0.9200 1.8400)
CF1 MX72/M0#g VSS 5.97319e-19
CF2 MX101/M0#g VSS 4.21735e-18
CF3 MX82/M0#g VSS 1.56399e-17
CF4 MX93/M0#g VSS 2.43603e-17
CF5 SE#24 VSS 2.23082e-17
CF6 SE#21 VSS 1.74668e-17
CF7 SE#22 VSS 7.89171e-18
CF8 SE VSS 7.29182e-18
CF9 MX93/M0#g 41 1.28937e-18
CF10 SE 41 1.9069e-17
CF11 MX101/M0#g 43 7.72091e-18
CF12 MX72/M0#g 43 2.41906e-18
CF13 MX82/M0#g 41 1.99359e-18
CF14 SE MX95/M0#d 2.29139e-18
CF15 MX101/M0#g 2#14 2.26486e-18
CF16 SE#21 2#15 1.68388e-17
CF17 MX101/M0#g 2#3 6.80947e-18
CF18 SE#21 2#14 1.10845e-17
CF19 MX93/M0#g MX95/M0#d 6.2356e-18
CF20 SE 2#15 7.66752e-17
CF21 SE MX82/M0#d 3.46655e-18
CF22 SE#21 MX95/M0#g 3.41559e-18
CF23 MX93/M0#g 1#20 2.28162e-18
CF24 MX82/M0#g 1#25 1.95214e-18
CF25 MX72/M0#g 1#22 1.85035e-18
CF26 SE#22 1#19 1.06551e-18
CF27 SE 1#24 4.99927e-17
CF28 SE 1#23 4.32924e-18
CF29 MX72/M0#g 1#21 6.92662e-18
CF30 SE#24 1#24 1.86353e-17
CF31 MX72/M0#g 1#14 8.88823e-18
CF32 SE#21 1#20 9.48625e-18
CF33 MX101/M0#g 1#20 9.27672e-18
CF34 SE 1#19 1.04312e-17
CF35 SE#24 1#23 1.49647e-17
CF36 SE#22 1#18 9.16634e-18
CF37 MX82/M0#g MX82/M0#d 8.12962e-18
CF38 SE 1#18 2.27864e-17
CF39 SE#24 1#19 1.93364e-17
CF40 MX82/M0#g 1#19 7.10033e-18
CF41 SE#24 1#21 1.5935e-17
CF42 SE#21 1#18 1.92173e-17
CF43 SE 1#25 2.13889e-17
CF44 SE VSS#20 3.66027e-18
CF45 MX82/M0#g VSS#20 3.64084e-18
CF46 SE#24 VSS#44 2.18366e-18
CF47 SE#21 VSS#44 1.88302e-18
CF48 MX82/M0#g MX82/M0#s 8.41205e-18
CF49 MX82/M0#g VSS#44 4.8201e-18
CF50 SE VSS#44 2.20091e-17
CF51 SE MX82/M0#s 1.0795e-17
CF52 MX93/M0#g VSS#19 5.74683e-18
CF53 MX93/M0#g VSS#44 4.8201e-18
CF54 SE#21 SI#11 1.20863e-17
CF55 MX101/M0#g VDD#50 5.21861e-18
CF56 MX72/M0#g VDD 1.39295e-17
CF57 MX72/M0#g VDD#44 3.77064e-18
CF58 SE#21 SI#12 3.20763e-18
CF59 MX101/M0#g VDD 1.60341e-17
CF60 MX72/M0#g VDD#50 5.21861e-18
CF61 MX101/M0#g VDD#44 5.04997e-18
CF62 MX72/M0#g MX86/M0#s 1.0183e-17
CF63 MX93/M0#g SI#11 2.96733e-18
RgF77 MX72/M0#g SE#15 367.971313 $L=1.145 $W=0.15
RgF78 SE#15 SE#16 38.857975 $L=0.1645 $W=0.27
RgF79 SE#16 SE#17 29.410927 $L=0.1645 $W=0.27
RgF80 SE#17 MX82/M0#g 322.984650 $L=1.005 $W=0.15
RgF81 MX93/M0#g SE#18 347.526733 $L=1.17 $W=0.15
RgF82 SE#18 SE#19 54.220818 $L=0.295 $W=0.27
RgF83 SE#19 MX101/M0#g 420.946655 $L=1.31 $W=0.15
RfF84 SE#20 SE#21 9.589334 $L=0.2245 $W=0.3
RfF85 SE#21 SE#22 24.481255 $L=0.325 $W=0.17
RfF86 SE#22 SE#23 19.587137 $L=0.26 $W=0.17
RfF87 SE#23 SE#24 11.793457 $L=0.2445 $W=0.3
ReF88 SE SE#25 0.091346 $L=0.19 $W=0.26
RjF89 SE#22 SE#25 152.000000 $A=0.0289
RiF90 SE#19 SE#20 15.000000 $A=0.0289
RiF91 SE#16 SE#24 15.000000 $A=0.0289
*
*|NET CK 5.15624e-16
*|P (CK X 0 2.3150 0.9950)
*|I (MX83/M0#g MX83/M0 g X 0 2.6250 0.8000)
*|I (MX73/M0#g MX73/M0 g X 0 2.6250 3.2800)
*|S (CK#8 2.6250 1.2900)
*|S (CK#9 2.6250 1.1250)
*|S (CK#10 2.6250 1.2900)
*|S (CK#11 2.3000 1.2900)
*|S (CK#12 2.3000 1.2900)
CA1 MX73/M0#g VSS 1.85053e-18
CA2 MX83/M0#g VSS 1.74965e-17
CA3 CK#12 VSS 8.86413e-18
CA4 CK#10 VSS 1.41681e-17
CA5 CK#11 VSS 1.47012e-17
CA6 CK VSS 2.34755e-17
CA7 MX83/M0#g 45 1.10002e-18
CA8 CK 45 1.15975e-17
CA9 MX83/M0#g 3#39 1.8002e-18
CA10 MX73/M0#g 3#40 1.5663e-18
CA11 CK#12 3#41 2.49325e-17
CA12 MX83/M0#g MX83/M0#d 7.13214e-18
CA13 CK 3#42 2.81975e-17
CA14 MX73/M0#g 3#39 2.85079e-18
CA15 MX73/M0#g 3#32 7.78562e-18
CA16 CK MX83/M0#d 4.61085e-18
CA17 CK#12 3#42 2.34732e-17
CA18 CK#10 3#39 5.92998e-18
CA19 CK#10 MX83/M0#d 1.20501e-17
CA20 CK#10 3#42 1.75408e-17
CA21 MX73/M0#g 2#9 1.88656e-18
CA22 MX83/M0#g MX89/M0#d 1.76427e-18
CA23 CK MX89/M0#d 1.11123e-18
CA24 CK MX95/M0#d 3.20202e-18
CA25 CK#11 2#15 3.53129e-18
CA26 CK#12 2#15 3.25356e-17
CA27 CK 2#15 2.04821e-17
CA28 CK#10 2#16 3.07011e-18
CA29 MX73/M0#g 2#13 7.58926e-18
CA30 CK VSS#20 1.77661e-18
CA31 CK#11 VSS#44 1.64779e-18
CA32 CK MX81/M0#s 1.4978e-18
CA33 CK#10 VSS#19 1.19497e-18
CA34 CK MX82/M0#s 3.66248e-18
CA35 CK MX83/M0#s 2.94136e-17
CA36 CK#11 MX83/M0#s 1.40576e-17
CA37 CK VSS#44 3.55424e-17
CA38 MX83/M0#g VSS#19 3.64084e-18
CA39 CK VSS#19 1.13853e-17
CA40 CK#10 MX83/M0#s 8.85908e-18
CA41 CK#10 VSS#44 2.81567e-18
CA42 MX83/M0#g VSS#44 4.8201e-18
CA43 MX83/M0#g MX83/M0#s 7.57466e-18
CA44 MX73/M0#g VDD#50 2.43623e-18
CA45 CK#10 SI#11 2.27521e-18
CA46 CK#12 SI#11 5.66752e-18
CA47 MX73/M0#g VDD#41 4.31255e-18
CA48 CK#11 SI#11 8.22212e-18
CA49 CK#12 SI#12 3.78481e-17
CA50 MX73/M0#g VDD 5.91821e-18
CA51 MX73/M0#g MX87/M0#s 9.13733e-18
CA52 CK#11 MX79/M0#g 5.6221e-18
RgA1 MX73/M0#g CK#8 620.612427 $L=1.99 $W=0.15
RgA2 CK#8 CK#9 34.134449 $L=0.1645 $W=0.27
RgA3 CK#9 MX83/M0#g 104.477959 $L=0.325 $W=0.15
RfA4 CK#10 CK#11 24.470589 $L=0.325 $W=0.17
ReA5 CK CK#12 0.141827 $L=0.295 $W=0.26
RjA6 CK#11 CK#12 152.000000 $A=0.0289
RiA7 CK#8 CK#10 15.000000 $A=0.0289
*
*|NET VSS 4.60571e-15
*|P (VSS X 0 4.8250 0.0050)
*|I (MX126/M0#d MX126/M0 d X 0 8.5605 0.8000)
*|I (MX126/M1#s MX126/M1 s X 0 8.8395 0.8000)
*|I (MX124/M0#s MX124/M0 s X 0 6.1695 0.8000)
*|I (MX113/M0#s MX113/M0 s X 0 11.0795 0.8000)
*|I (MX113/M1#d MX113/M1 d X 0 11.6605 0.8000)
*|I (MX113/M2#s MX113/M2 s X 0 11.9395 0.8000)
*|I (MX113/M3#d MX113/M3 d X 0 12.5205 0.8000)
*|I (MX108/M0#s MX108/M0 s X 0 12.7995 0.8000)
*|I (MX108/M1#d MX108/M1 d X 0 13.3805 0.8000)
*|I (MX108/M2#s MX108/M2 s X 0 13.6595 0.8000)
*|I (MX108/M3#d MX108/M3 d X 0 14.2405 0.8000)
*|I (MX94/M0#s MX94/M0 s X 0 7.6105 0.8000)
*|I (MX84/M0#s MX84/M0 s X 0 5.8905 0.8000)
*|I (MX83/M0#s MX83/M0 s X 0 2.5495 0.8000)
*|I (MX82/M0#s MX82/M0 s X 0 0.5505 0.8000)
*|I (MX81/M0#s MX81/M0 s X 0 4.9405 0.8000)
*|I (MX80/M0#s MX80/M0 s X 0 10.8005 0.8000)
*|I (MX79/M0#s MX79/M0 s X 0 2.2705 0.8000)
*|I (MX78/M0#s MX78/M0 s X 0 0.8295 0.8000)
*|S (VSS#2 14.3800 0.8000)
*|S (VSS#3 14.3800 0.1245)
*|S (VSS#4 14.2600 0.0000)
*|S (VSS#5 14.2600 0.0000)
*|S (VSS#7 13.5200 0.0000)
*|S (VSS#8 12.6600 0.0000)
*|S (VSS#9 11.8000 0.0000)
*|S (VSS#10 10.9400 0.0000)
*|S (VSS#11 10.5800 0.0000)
*|S (VSS#13 8.7000 0.0000)
*|S (VSS#14 7.7500 0.0000)
*|S (VSS#15 6.0300 0.0000)
*|S (VSS#16 5.0800 0.0000)
*|S (VSS#17 3.6800 0.0000)
*|S (VSS#19 2.4100 0.0000)
*|S (VSS#20 0.6900 0.0000)
*|S (VSS#21 0.0000 0.0000)
*|S (VSS#23 13.5200 0.8000)
*|S (VSS#25 12.6600 0.8000)
*|S (VSS#27 11.8000 0.8000)
*|S (VSS#29 10.9400 0.8000)
*|S (VSS#31 8.7000 0.8000)
*|S (VSS#33 7.7500 0.8000)
*|S (VSS#35 6.0300 0.8000)
*|S (VSS#37 5.0800 0.8000)
*|S (VSS#39 2.4100 0.8000)
*|S (VSS#41 0.6900 0.8000)
*|S (VSS#42 14.2600 0.0000)
*|S (VSS#43 10.5800 0.0000)
*|S (VSS#44 3.6800 0.0000)
RfI159 VSS#2 VSS#3 50.831059 $L=0.675 $W=0.17
RfI160 VSS#3 VSS#4 3.762777 $L=0.1245 $W=0.425
RfI161 VSS#4 VSS#7 37.612808 $L=0.74 $W=0.25
RfI162 VSS#7 VSS#8 43.481621 $L=0.86 $W=0.25
RfI163 VSS#8 VSS#9 43.481621 $L=0.86 $W=0.25
RfI164 VSS#9 VSS#10 43.481621 $L=0.86 $W=0.25
RfI165 VSS#10 VSS#11 18.156811 $L=0.36 $W=0.25
RfI166 VSS#11 VSS#13 95.980812 $L=1.88 $W=0.25
RfI167 VSS#13 VSS#14 48.089619 $L=0.95 $W=0.25
RfI168 VSS#14 VSS#15 87.513618 $L=1.72 $W=0.25
RfI169 VSS#15 VSS#16 48.089619 $L=0.95 $W=0.25
RfI170 VSS#16 VSS#17 71.404816 $L=1.4 $W=0.25
RfI171 VSS#17 VSS#19 64.748810 $L=1.27 $W=0.25
RfI172 VSS#19 VSS#20 87.513618 $L=1.72 $W=0.25
RfI173 VSS#20 VSS#21 35.052811 $L=0.69 $W=0.25
RfI174 VSS#7 VSS#23 53.627445 $L=0.8 $W=0.17
RfI175 VSS#8 VSS#25 53.627445 $L=0.8 $W=0.17
RfI176 VSS#9 VSS#27 53.627445 $L=0.8 $W=0.17
RfI177 VSS#10 VSS#29 53.627445 $L=0.8 $W=0.17
RfI178 VSS#13 VSS#31 53.627445 $L=0.8 $W=0.17
RfI179 VSS#14 VSS#33 53.627445 $L=0.8 $W=0.17
RfI180 VSS#15 VSS#35 53.627445 $L=0.8 $W=0.17
RfI181 VSS#16 VSS#37 53.627445 $L=0.8 $W=0.17
RfI182 VSS#19 VSS#39 53.627445 $L=0.8 $W=0.17
RfI183 VSS#20 VSS#41 53.627445 $L=0.8 $W=0.17
ReI184 VSS#42 VSS#43 1.150000 $L=3.68 $W=0.4
ReI185 VSS#43 VSS 1.798438 $L=5.755 $W=0.4
ReI186 VSS VSS#44 0.357812 $L=1.145 $W=0.4
RhI187 MX108/M3#d VSS#2 15.000000 $A=0.0289
RhI188 MX108/M1#d VSS#23 15.000000 $A=0.0289
RhI189 MX113/M3#d VSS#25 15.000000 $A=0.0289
RhI190 MX113/M1#d VSS#27 15.000000 $A=0.0289
RhI191 MX113/M0#s VSS#29 15.000000 $A=0.0289
RhI192 MX126/M0#d VSS#31 15.000000 $A=0.0289
RhI193 MX94/M0#s VSS#33 15.000000 $A=0.0289
RhI194 MX124/M0#s VSS#35 15.000000 $A=0.0289
RhI195 MX81/M0#s VSS#37 15.000000 $A=0.0289
RhI196 MX83/M0#s VSS#39 15.000000 $A=0.0289
RhI197 MX82/M0#s VSS#41 15.000000 $A=0.0289
Rh_3_I198 VSS#5 VSS#4 15.000000 $A=0.0289
Rh_3_I199 VSS#5 VSS#11 1.000000 $A=0.4335
Rh_3_I200 VSS#5 VSS#17 1.000000 $A=0.4335
RjI201 VSS#4 VSS#42 152.000000 $A=0.0289
RjI202 VSS#11 VSS#43 10.133333 $A=0.4335
RjI203 VSS#17 VSS#44 10.133333 $A=0.4335
RmwI204 MX126/M1#s MX126/M0#d 0.001000 $W=1000000
RmwI205 MX113/M2#s MX113/M1#d 0.001000 $W=1000000
RmwI206 MX108/M0#s MX113/M3#d 0.001000 $W=1000000
RmwI207 MX108/M2#s MX108/M1#d 0.001000 $W=1000000
RmwI208 MX84/M0#s MX124/M0#s 0.001000 $W=1000000
RmwI209 MX80/M0#s MX113/M0#s 0.001000 $W=1000000
RmwI210 MX79/M0#s MX83/M0#s 0.001000 $W=1000000
RmwI211 MX78/M0#s MX82/M0#s 0.001000 $W=1000000
*
*|NET 3 1.77086e-15
*|I (MX121/M0#g MX121/M0 g X 0 7.1050 0.8000)
*|I (MX89/M0#g MX89/M0 g X 0 3.5750 0.8000)
*|I (MX84/M0#g MX84/M0 g X 0 5.8150 0.8000)
*|I (MX83/M0#d MX83/M0 d X 0 2.7005 0.8000)
*|I (MX120/M0#g MX120/M0 g X 0 4.0050 3.2800)
*|I (MX77/M0#g MX77/M0 g X 0 6.6750 3.2800)
*|I (MX74/M0#g MX74/M0 g X 0 5.8150 3.2800)
*|I (MX73/M0#d MX73/M0 d X 0 2.7005 3.2800)
*|S (3 4.0050 3.2800)
*|S (3#22 4.0050 1.9700)
*|S (3#23 3.7900 1.9700)
*|S (3#24 3.5750 1.9700)
*|S (3#25 5.8150 1.9700)
*|S (3#26 5.8150 1.8050)
*|S (3#27 7.1050 1.9700)
*|S (3#28 6.8900 1.9700)
*|S (3#29 6.6750 1.9700)
*|S (3#31 2.8400 3.2800)
*|S (3#32 2.8400 3.1750)
*|S (3#33 2.8400 0.8500)
*|S (3#35 2.8400 0.8000)
*|S (3#36 6.8900 1.9700)
*|S (3#37 5.8150 1.9700)
*|S (3#38 3.7900 1.9700)
*|S (3#39 2.8400 1.9700)
*|S (3#40 2.8400 3.1750)
*|S (3#41 2.8400 1.9700)
*|S (3#42 2.8400 0.8500)
CL1 MX73/M0#d VSS 2.27667e-19
CL2 MX74/M0#g VSS 3.10383e-18
CL3 MX77/M0#g VSS 7.17747e-18
CL4 MX83/M0#d VSS 3.94294e-18
CL5 MX84/M0#g VSS 2.09692e-17
CL6 MX89/M0#g VSS 2.01262e-17
CL7 MX121/M0#g VSS 3.09768e-17
CL8 3#42 VSS 6.49147e-18
CL9 3#41 VSS 1.13339e-17
CL10 3#40 VSS 4.2135e-18
CL11 3#38 VSS 3.7015e-17
CL12 3#37 VSS 2.95685e-17
CL13 3#36 VSS 1.70443e-17
CL14 3#39 VSS 2.63563e-17
CL15 3#32 VSS 1.31971e-18
CL16 3 VSS 6.24064e-18
CL17 MX74/M0#g 60#6 1.96715e-18
CL18 3 60#10 1.02629e-18
CL19 3 60#3 6.79803e-18
CL20 3#38 60#10 3.65169e-18
CL21 MX77/M0#g 7#23 6.79664e-18
CL22 MX121/M0#g MX121/M0#d 6.2356e-18
CL23 3#36 7#30 2.3338e-17
CL24 3#36 7#28 1.37063e-17
CL25 MX77/M0#g 6#12 6.79664e-18
CL26 MX77/M0#g 6#16 4.14088e-18
CL27 3#38 MX92/M0#g 2.98254e-18
CL28 MX74/M0#g 6#12 1.42417e-18
CL29 MX74/M0#g 6#16 7.30743e-18
CL30 3#36 6#16 2.56309e-17
CL31 3#37 6#17 5.13187e-17
CL32 3#37 6#16 6.9694e-17
CL33 3#36 6#19 1.20001e-17
CL34 3#38 6#17 5.08246e-17
CL35 3#37 6#19 9.09137e-18
CL36 3 5#30 8.84198e-18
CL37 MX74/M0#g 5#25 7.78458e-18
CL38 MX84/M0#g MX84/M0#d 7.13214e-18
CL39 MX84/M0#g 5#35 6.9216e-18
CL40 3#36 5#32 5.45858e-18
CL41 3#40 5#30 4.23757e-18
CL42 3#38 MX119/M0#g 2.98254e-18
CL43 3#38 5 2.90171e-18
CL44 MX84/M0#g 5#40 1.90946e-18
CL45 3#32 5 1.88656e-18
CL46 3#41 5#30 1.39298e-18
CL47 3#37 5#38 1.16107e-17
CL48 3#38 5#36 2.13507e-17
CL49 MX121/M0#g 5#34 9.27e-18
CL50 3#37 5#39 1.16869e-17
CL51 3#38 5#30 2.00953e-17
CL52 3 4#12 6.80947e-18
CL53 MX89/M0#g MX119/M0#d 6.49954e-18
CL54 3#37 4#18 5.36247e-18
CL55 MX74/M0#g 4#18 3.94037e-18
CL56 3#38 4#20 2.48731e-17
CL57 3#38 4#19 1.68253e-17
CL58 MX84/M0#g MX124/M0#s 7.57466e-18
CL59 MX83/M0#d VSS#19 6.01954e-18
CL60 3#39 VSS#44 5.77212e-18
CL61 MX89/M0#g VSS#5 5.74683e-18
CL62 MX83/M0#d VSS#44 5.66554e-18
CL63 3#38 VSS#44 5.61505e-18
CL64 3#42 VSS#19 4.99237e-18
CL65 MX121/M0#g VSS#14 4.88426e-18
CL66 MX84/M0#g VSS#44 4.8201e-18
CL67 MX89/M0#g VSS#44 4.8201e-18
CL68 3#42 MX83/M0#s 4.11893e-18
CL69 MX84/M0#g VSS#15 3.64084e-18
CL70 3#42 VSS#44 1.74471e-17
CL71 MX83/M0#d MX83/M0#s 1.88068e-17
RgL250 3 3#22 392.513397 $L=1.31 $W=0.15
RgL251 3#22 3#23 39.939335 $L=0.215 $W=0.27
RgL252 3#23 3#24 39.939335 $L=0.215 $W=0.27
RgL253 3#24 MX89/M0#g 347.526733 $L=1.17 $W=0.15
RgL254 MX74/M0#g 3#25 402.105774 $L=1.31 $W=0.15
RgL255 3#25 3#26 34.134449 $L=0.1645 $W=0.27
RgL256 3#26 MX84/M0#g 322.984650 $L=1.005 $W=0.15
RgL257 MX121/M0#g 3#27 347.526733 $L=1.17 $W=0.15
RgL258 3#27 3#28 39.939335 $L=0.215 $W=0.27
RgL259 3#28 3#29 39.939335 $L=0.215 $W=0.27
RgL260 3#29 MX77/M0#g 392.513397 $L=1.31 $W=0.15
RfL261 3#31 3#32 7.905882 $L=0.105 $W=0.17
RfL262 3#33 3#35 3.764706 $L=0.05 $W=0.17
RfL263 3#36 3#37 80.941177 $L=1.075 $W=0.17
RfL264 3#37 3#38 152.470596 $L=2.025 $W=0.17
RfL265 3#38 3#39 71.529411 $L=0.95 $W=0.17
ReL266 3#40 3#41 0.654891 $L=1.205 $W=0.23
ReL267 3#41 3#42 0.608696 $L=1.12 $W=0.23
RhL268 MX83/M0#d 3#35 15.000000 $A=0.0289
Rh_2_L269 MX73/M0#d 3#31 15.000000 $A=0.0289
RjL270 3#32 3#40 152.000000 $A=0.0289
RjL271 3#39 3#41 152.000000 $A=0.0289
RjL272 3#33 3#42 152.000000 $A=0.0289
RiL273 3#28 3#36 15.000000 $A=0.0289
RiL274 3#25 3#37 15.000000 $A=0.0289
RiL275 3#23 3#38 15.000000 $A=0.0289
RmwL276 MX120/M0#g 3 0.001000 $W=1000000
*
*|NET 6 1.40266e-15
*|I (MX124/M0#d MX124/M0 d X 0 6.3205 0.8000)
*|I (MX92/M0#g MX92/M0 g X 0 4.4350 0.8000)
*|I (MX85/M0#d MX85/M0 d X 0 6.5995 0.8000)
*|I (MX102/M0#g MX102/M0 g X 0 4.4350 3.2800)
*|I (MX88/M0#d MX88/M0 d X 0 6.3205 3.2800)
*|I (MX77/M0#s MX77/M0 s X 0 6.5995 3.2800)
*|S (6 4.4350 3.2800)
*|S (6#8 4.4350 2.3100)
*|S (6#9 4.4350 2.1450)
*|S (6#11 6.4600 3.2800)
*|S (6#12 6.4600 3.1750)
*|S (6#13 6.4600 0.8500)
*|S (6#15 6.4600 0.8000)
*|S (6#16 6.4600 2.3100)
*|S (6#17 4.4350 2.3100)
*|S (6#18 6.4600 3.1750)
*|S (6#19 6.4600 2.3100)
*|S (6#20 6.4600 0.8500)
CO1 MX92/M0#g VSS 3.7399e-17
CO2 MX124/M0#d VSS 5.94563e-18
CO3 6#20 VSS 1.12273e-17
CO4 6#19 VSS 4.41049e-18
CO5 6#18 VSS 5.93888e-18
CO6 6#17 VSS 5.07733e-18
CO7 6#16 VSS 5.94138e-18
CO8 6#12 VSS 1.41432e-18
CO9 6 VSS 7.60165e-18
CO10 6#17 60#10 2.91568e-18
CO11 6#17 60#8 3.41122e-18
CO12 6 60#3 6.79803e-18
CO13 MX124/M0#d 7#31 3.99586e-18
CO14 6#12 7#32 3.94969e-18
CO15 6#20 7#31 6.84077e-17
CO16 MX124/M0#d MX121/M0#d 1.89122e-17
CO17 6#18 7#32 6.09466e-17
CO18 6#12 7#23 2.32263e-17
CO19 6#19 7#32 1.83234e-17
CO20 6#19 7#30 9.90455e-17
CO21 6#16 7#30 7.93033e-18
CO22 6#20 7#30 1.69562e-17
CO23 6#20 MX124/M0#s 6.50864e-18
CO24 MX124/M0#d VSS#15 6.01954e-18
CO25 MX124/M0#d VSS#44 5.3592e-18
CO26 MX92/M0#g VSS#44 4.8201e-18
CO27 6#20 VSS#15 4.60773e-18
CO28 6#20 VSS#44 2.07771e-17
CO29 MX124/M0#d MX124/M0#s 2.02979e-17
RgO326 6 6#8 292.852417 $L=0.97 $W=0.15
RgO327 6#8 6#9 34.134449 $L=0.1645 $W=0.27
RgO328 6#9 MX92/M0#g 432.237946 $L=1.345 $W=0.15
RfO329 6#11 6#12 7.905882 $L=0.105 $W=0.17
RfO330 6#13 6#15 3.764706 $L=0.05 $W=0.17
RfO331 6#16 6#17 152.470596 $L=2.025 $W=0.17
ReO332 6#18 6#19 0.470109 $L=0.865 $W=0.23
ReO333 6#19 6#20 0.793478 $L=1.46 $W=0.23
RhO334 MX124/M0#d 6#15 15.000000 $A=0.0289
Rh_2_O335 MX88/M0#d 6#11 15.000000 $A=0.0289
RjO336 6#12 6#18 152.000000 $A=0.0289
RjO337 6#16 6#19 152.000000 $A=0.0289
RjO338 6#13 6#20 152.000000 $A=0.0289
RiO339 6#8 6#17 15.000000 $A=0.0289
RmwO340 MX85/M0#d MX124/M0#d 0.001000 $W=1000000
RmwO341 MX102/M0#g 6 0.001000 $W=1000000
RmwO342 MX77/M0#s MX88/M0#d 0.001000 $W=1000000
*
*|NET 1 1.15295e-15
*|I (MX95/M0#g MX95/M0 g X 0 1.3350 0.8000)
*|I (MX82/M0#d MX82/M0 d X 0 0.3995 0.8000)
*|I (MX90/M0#g MX90/M0 g X 0 1.7650 3.2800)
*|I (MX72/M0#d MX72/M0 d X 0 0.3995 3.2800)
*|S (1 1.7650 3.2800)
*|S (1#8 1.3350 1.1250)
*|S (1#9 1.3350 1.2900)
*|S (1#10 1.7650 2.8145)
*|S (1#11 1.7650 2.6500)
*|S (1#13 0.2600 3.2800)
*|S (1#14 0.2600 3.1750)
*|S (1#15 0.2600 0.8500)
*|S (1#17 0.2600 0.8000)
*|S (1#18 1.3350 1.2900)
*|S (1#19 0.2600 1.2900)
*|S (1#20 1.7650 2.6500)
*|S (1#21 0.2600 2.6500)
*|S (1#22 0.2600 3.1750)
*|S (1#23 0.2600 2.6500)
*|S (1#24 0.2600 1.2900)
*|S (1#25 0.2600 0.8500)
CJ1 MX82/M0#d VSS 9.98239e-18
CJ2 MX95/M0#g VSS 2.1359e-17
CJ3 1#25 VSS 1.78919e-17
CJ4 1#24 VSS 3.4104e-17
CJ5 1#23 VSS 3.82095e-18
CJ6 1#22 VSS 1.46399e-20
CJ7 1#20 VSS 5.62343e-18
CJ8 1#18 VSS 2.21554e-17
CJ9 1#19 VSS 2.66778e-17
CJ10 1#21 VSS 3.14056e-18
CJ11 1#14 VSS 1.3952e-18
CJ12 1 VSS 2.07903e-18
CJ13 1 43 1.59138e-18
CJ14 1#20 47 1.09684e-17
CJ15 1#22 43 1.3677e-18
CJ16 MX95/M0#g 41 6.21439e-18
CJ17 1#25 41 1.4384e-18
CJ18 1#18 41 2.31262e-17
CJ19 1#20 43 1.41016e-17
CJ20 1 47 7.72956e-18
CJ21 1 2#14 2.33609e-18
CJ22 1#23 2#14 1.67483e-18
CJ23 1#18 2#15 1.99401e-17
CJ24 1#18 MX95/M0#d 1.34272e-17
CJ25 1#20 2#14 4.72582e-17
CJ26 MX95/M0#g MX95/M0#d 6.2356e-18
CJ27 1 2#3 6.80947e-18
CJ28 1#20 2#3 1.49029e-17
CJ29 1#18 VSS#44 5.52342e-18
CJ30 MX82/M0#d VSS#44 5.34191e-18
CJ31 MX95/M0#g VSS#20 4.87612e-18
CJ32 MX95/M0#g VSS#44 4.8201e-18
CJ33 MX82/M0#d VSS#21 4.62862e-18
CJ34 1#18 VSS#20 2.92793e-18
CJ35 1#25 VSS#21 2.80165e-18
CJ36 1#25 VSS#20 1.7945e-18
CJ37 1 VSS#44 1.37737e-18
CJ38 MX82/M0#d MX82/M0#s 2.02978e-17
CJ39 1#19 MX82/M0#s 2.18448e-17
CJ40 1#19 VSS#44 5.91697e-18
CJ41 1#25 MX82/M0#s 6.49073e-18
CJ42 1#25 VSS#44 2.07771e-17
RgJ212 MX95/M0#g 1#8 104.477959 $L=0.325 $W=0.15
RgJ213 1#8 1#9 34.134449 $L=0.1645 $W=0.27
RgJ214 1 1#10 149.464630 $L=0.465 $W=0.15
RgJ215 1#10 1#11 34.134449 $L=0.1645 $W=0.27
RfJ216 1#13 1#14 7.905882 $L=0.105 $W=0.17
RfJ217 1#15 1#17 3.764706 $L=0.05 $W=0.17
RfJ218 1#18 1#19 80.941177 $L=1.075 $W=0.17
RfJ219 1#20 1#21 113.317642 $L=1.505 $W=0.17
ReJ220 1#22 1#23 0.285326 $L=0.525 $W=0.23
ReJ221 1#23 1#24 0.739130 $L=1.36 $W=0.23
ReJ222 1#24 1#25 0.239130 $L=0.44 $W=0.23
RhJ223 MX82/M0#d 1#17 15.000000 $A=0.0289
Rh_2_J224 MX72/M0#d 1#13 15.000000 $A=0.0289
RjJ225 1#14 1#22 152.000000 $A=0.0289
RjJ226 1#21 1#23 152.000000 $A=0.0289
RjJ227 1#19 1#24 152.000000 $A=0.0289
RjJ228 1#15 1#25 152.000000 $A=0.0289
RiJ229 1#9 1#18 15.000000 $A=0.0289
RiJ230 1#11 1#20 15.000000 $A=0.0289
RmwJ231 MX90/M0#g 1 0.001000 $W=1000000
*
*|NET 2 1.89982e-15
*|I (MX95/M0#d MX95/M0 d X 0 1.4105 0.8000)
*|I (MX93/M0#d MX93/M0 d X 0 1.6895 0.8000)
*|I (MX89/M0#d MX89/M0 d X 0 3.4995 0.8000)
*|I (MX101/M0#d MX101/M0 d X 0 1.4105 3.2800)
*|I (MX90/M0#d MX90/M0 d X 0 1.6895 3.2800)
*|I (MX71/M0#s MX71/M0 s X 0 3.4995 3.2800)
*|S (2 1.5500 3.2800)
*|S (2#2 1.5500 3.2800)
*|S (2#3 1.5500 3.1750)
*|S (2#4 1.5500 0.8500)
*|S (2#6 1.5500 0.8000)
*|S (2#8 3.3600 3.2800)
*|S (2#9 3.3600 3.1750)
*|S (2#10 3.3600 0.8500)
*|S (2#12 3.3600 0.8000)
*|S (2#13 3.3600 3.1750)
*|S (2#14 1.5500 3.1750)
*|S (2#15 1.5500 0.8500)
*|S (2#16 3.3600 0.8500)
CK1 MX89/M0#d VSS 1.15724e-17
CK2 MX95/M0#d VSS 4.12545e-18
CK3 2#16 VSS 2.59034e-17
CK4 2#15 VSS 2.1955e-17
CK5 2#14 VSS 3.84705e-18
CK6 2#13 VSS 1.06461e-17
CK7 2#3 VSS 5.41439e-18
CK8 2#9 VSS 2.86178e-18
CK9 2#14 47 3.07066e-17
CK10 2#15 41 5.59583e-18
CK11 2#3 43 2.40891e-17
CK12 MX95/M0#d 45 1.80932e-17
CK13 2#15 45 6.08715e-18
CK14 2#3 47 2.4e-17
CK15 MX95/M0#d 41 1.85242e-17
CK16 2#14 43 1.22935e-17
CK17 2#9 5#30 9.37441e-18
CK18 2#9 5 7.75441e-18
CK19 2#13 5#30 1.62944e-17
CK20 2#9 4#19 5.38536e-18
CK21 2#13 4#12 5.16102e-18
CK22 2#16 4#20 1.31141e-16
CK23 2#13 4#19 1.76906e-16
CK24 MX89/M0#d MX119/M0#d 1.89122e-17
CK25 2#9 4#12 2.32685e-17
CK26 2#16 3#39 8.5622e-18
CK27 2#14 3#40 7.62231e-18
CK28 2#13 3#38 7.2176e-18
CK29 MX89/M0#d MX89/M0#g 7.13214e-18
CK30 2#9 3#40 3.70973e-18
CK31 2#16 MX83/M0#d 3.62335e-18
CK32 MX89/M0#d 3#42 3.62335e-18
CK33 2#15 3#41 3.59796e-18
CK34 2#16 3#42 4.71076e-17
CK35 2#13 3#39 1.16412e-17
CK36 2#13 3#40 9.33476e-17
CK37 2#9 3#32 1.7452e-17
CK38 2#16 3#41 4.51779e-17
CK39 2#13 3#32 1.5768e-17
CK40 MX89/M0#d MX83/M0#d 1.27642e-17
CK41 2#16 3#38 1.14293e-17
CK42 2#13 3#41 4.06477e-17
CK43 MX89/M0#d VSS#5 7.24683e-18
CK44 MX89/M0#d VSS#44 5.66554e-18
CK45 MX95/M0#d VSS#44 5.5525e-18
CK46 2#16 VSS#5 5.37701e-18
CK47 MX95/M0#d VSS#20 3.62342e-18
CK48 MX95/M0#d VSS#19 3.60004e-18
CK49 2#15 VSS#44 2.07771e-17
CK50 2#16 VSS#44 2.07771e-17
RfK232 2#2 2#3 7.905882 $L=0.105 $W=0.17
RfK233 2#4 2#6 3.764706 $L=0.05 $W=0.17
RfK234 2#8 2#9 7.905882 $L=0.105 $W=0.17
RfK235 2#10 2#12 3.764706 $L=0.05 $W=0.17
ReK236 2#13 2#14 1.319030 $L=2.63 $W=0.23
ReK237 2#14 2#15 1.263587 $L=2.325 $W=0.23
ReK238 2#13 2#16 1.263587 $L=2.325 $W=0.23
RhK239 MX95/M0#d 2#6 15.000000 $A=0.0289
RhK240 MX89/M0#d 2#12 15.000000 $A=0.0289
Rh_2_K241 2 2#2 15.000000 $A=0.0289
Rh_2_K242 MX71/M0#s 2#8 15.000000 $A=0.0289
RjK243 2#9 2#13 152.000000 $A=0.0289
RjK244 2#3 2#14 152.000000 $A=0.0289
RjK245 2#4 2#15 152.000000 $A=0.0289
RjK246 2#10 2#16 152.000000 $A=0.0289
RmwK247 MX93/M0#d MX95/M0#d 0.001000 $W=1000000
RmwK248 MX101/M0#d 2 0.001000 $W=1000000
RmwK249 MX90/M0#d 2 0.001000 $W=1000000
*
*|NET 8 2.27097e-15
*|I (MX113/M0#g MX113/M0 g X 0 11.1550 0.8000)
*|I (MX113/M1#g MX113/M1 g X 0 11.5850 0.8000)
*|I (MX113/M2#g MX113/M2 g X 0 12.0150 0.8000)
*|I (MX113/M3#g MX113/M3 g X 0 12.4450 0.8000)
*|I (MX112/M0#d MX112/M0 d X 0 9.4205 0.8000)
*|I (MX112/M1#s MX112/M1 s X 0 9.6995 0.8000)
*|I (MX94/M0#g MX94/M0 g X 0 7.5350 0.8000)
*|I (MX80/M0#g MX80/M0 g X 0 10.7250 0.8000)
*|I (MX111/M0#d MX111/M0 d X 0 8.5605 3.2800)
*|I (MX111/M1#s MX111/M1 s X 0 8.8395 3.2800)
*|I (MX110/M0#g MX110/M0 g X 0 11.1550 3.2400)
*|I (MX110/M1#g MX110/M1 g X 0 11.5850 3.2400)
*|I (MX110/M2#g MX110/M2 g X 0 12.0150 3.2400)
*|I (MX110/M3#g MX110/M3 g X 0 12.4450 3.2400)
*|I (MX109/M0#d MX109/M0 d X 0 9.4205 3.2800)
*|I (MX109/M1#s MX109/M1 s X 0 9.6995 3.2800)
*|I (MX107/M0#g MX107/M0 g X 0 7.5350 3.2800)
*|I (MX76/M0#g MX76/M0 g X 0 10.7250 3.2400)
*|S (8 7.5350 3.2800)
*|S (8#43 7.5950 2.4745)
*|S (8#44 7.5950 2.3100)
*|S (8#45 7.5950 2.1450)
*|S (8#46 12.4450 1.6300)
*|S (8#47 12.0150 1.6300)
*|S (8#48 11.5850 1.6300)
*|S (8#49 11.1550 1.6300)
*|S (8#50 10.7250 1.6300)
*|S (8#51 8.2600 2.3100)
*|S (8#52 7.5950 2.3100)
*|S (8#54 8.7000 3.2800)
*|S (8#55 8.7000 2.9900)
*|S (8#57 9.5600 3.2800)
*|S (8#58 9.5600 2.9900)
*|S (8#59 11.5850 1.6300)
*|S (8#60 9.5600 1.0250)
*|S (8#62 9.5600 0.8000)
*|S (8#63 9.5600 2.9900)
*|S (8#64 9.5600 2.7800)
*|S (8#65 9.5600 2.3100)
*|S (8#66 8.2600 2.3100)
*|S (8#67 8.7000 2.9900)
*|S (8#68 9.5600 1.0250)
CQ1 MX76/M0#g VSS 3.9889e-20
CQ2 MX110/M3#g VSS 2.89446e-18
CQ3 MX110/M2#g VSS 1.76187e-18
CQ4 MX110/M1#g VSS 2.0054e-18
CQ5 MX110/M0#g VSS 2.0054e-18
CQ6 MX80/M0#g VSS 1.71698e-17
CQ7 MX94/M0#g VSS 2.33264e-17
CQ8 MX112/M0#d VSS 2.69635e-18
CQ9 MX113/M3#g VSS 2.01373e-17
CQ10 MX113/M2#g VSS 1.36646e-17
CQ11 MX113/M1#g VSS 1.38304e-17
CQ12 MX113/M0#g VSS 1.59076e-17
CQ13 8#68 VSS 3.22587e-17
CQ14 8#67 VSS 9.34188e-18
CQ15 8#66 VSS 6.94706e-18
CQ16 8#65 VSS 7.22939e-18
CQ17 8#64 VSS 2.901e-18
CQ18 8#59 VSS 6.07174e-17
CQ19 8#52 VSS 3.27375e-18
CQ20 8#51 VSS 2.16788e-18
CQ21 8#55 VSS 4.85404e-18
CQ22 8#60 VSS 2.85505e-17
CQ23 8 VSS 1.18811e-17
CQ24 8#59 64#10 3.04651e-18
CQ25 8#65 64#6 2.61896e-18
CQ26 8#66 64#3 2.47797e-18
CQ27 MX94/M0#g 64#3 1.8926e-18
CQ28 MX80/M0#g 64#9 1.78745e-18
CQ29 8#51 64#12 1.31034e-18
CQ30 8#65 MX126/M1#d 1.29856e-18
CQ31 8#68 64#3 1.0166e-18
CQ32 8#60 64#9 9.37315e-18
CQ33 8#59 64#9 3.81764e-18
CQ34 8#68 64#9 4.36784e-18
CQ35 MX112/M0#d 64#10 5.13474e-18
CQ36 8#68 64#11 2.5828e-17
CQ37 8#68 64#10 2.56909e-17
CQ38 MX112/M0#d 64#9 1.42653e-17
CQ39 8#60 64#10 4.03338e-18
CQ40 MX112/M0#d 64#11 5.17569e-18
CQ41 8#68 64#6 4.32468e-18
CQ42 MX112/M0#d 64#6 1.50324e-17
CQ43 8#60 64#6 7.19432e-18
CQ44 MX80/M0#g MX80/M0#d 7.12693e-18
CQ45 8#60 MX80/M0#d 5.50974e-18
CQ46 8#60 37#44 4.81318e-18
CQ47 8#58 37#36 4.70395e-18
CQ48 8#58 37#42 4.56985e-18
CQ49 8#64 37#36 4.32568e-18
CQ50 MX110/M2#g 37#40 4.21245e-18
CQ51 MX110/M1#g 37#41 4.21245e-18
CQ52 MX110/M0#g 37#41 4.21245e-18
CQ53 MX76/M0#g 37#41 4.19364e-18
CQ54 8#68 MX80/M0#d 4.00826e-18
CQ55 8#65 37#41 3.1097e-18
CQ56 MX76/M0#g 37#42 2.75143e-18
CQ57 8#68 37#43 2.56805e-18
CQ58 8#65 37#36 2.30797e-18
CQ59 MX110/M3#g 37#40 1.90825e-18
CQ60 MX80/M0#g 37#44 1.87466e-18
CQ61 MX110/M0#g 37#36 1.84979e-18
CQ62 MX113/M0#g MX80/M0#d 1.31748e-18
CQ63 8#59 37#44 1.7431e-17
CQ64 8#65 37#42 1.10358e-17
CQ65 8#65 37#43 1.99993e-17
CQ66 8#59 MX80/M0#d 2.11231e-17
CQ67 8#59 37#43 1.87046e-17
CQ68 8#64 37#42 3.00776e-17
CQ69 MX76/M0#g 37#36 1.00108e-17
CQ70 8#68 37#44 2.38935e-17
CQ71 8#59 37#41 1.21321e-16
CQ72 8#59 37#40 4.96495e-17
CQ73 MX94/M0#g MX94/M0#s 8.30381e-18
CQ74 MX80/M0#g MX113/M0#s 7.57466e-18
CQ75 MX113/M3#g MX113/M3#d 7.17857e-18
CQ76 MX113/M2#g MX113/M1#d 7.15597e-18
CQ77 MX113/M1#g MX113/M1#d 7.15597e-18
CQ78 MX113/M0#g MX113/M0#s 7.15597e-18
CQ79 8#59 MX113/M0#s 6.65202e-18
CQ80 MX112/M0#d VSS#43 4.952e-18
CQ81 MX80/M0#g VSS#43 4.8201e-18
CQ82 MX113/M0#g VSS#43 4.8201e-18
CQ83 MX113/M0#g VSS#10 4.29097e-18
CQ84 MX113/M2#g VSS#9 4.29097e-18
CQ85 MX113/M1#g VSS#9 4.29097e-18
CQ86 MX113/M3#g VSS#8 4.29097e-18
CQ87 MX94/M0#g VSS#43 4.10439e-18
CQ88 MX112/M0#d VSS#13 3.94334e-18
CQ89 MX80/M0#g VSS#5 3.927e-18
CQ90 8#66 MX126/M0#d 3.73942e-18
CQ91 MX94/M0#g VSS#14 3.64084e-18
CQ92 MX113/M2#g VSS#43 3.117e-18
CQ93 MX113/M1#g VSS#43 3.117e-18
CQ94 MX113/M3#g VSS#43 2.87013e-18
CQ95 8#68 MX126/M0#d 2.65002e-18
CQ96 8#65 VSS#13 2.45289e-18
CQ97 8#66 VSS#13 2.07361e-18
CQ98 8#66 VSS#14 1.58602e-18
CQ99 MX113/M3#g MX113/M1#d 1.48714e-18
CQ100 8#59 VSS#43 1.54014e-17
RgQ367 8 8#43 258.717957 $L=0.805 $W=0.15
RgQ368 8#43 8#44 38.857975 $L=0.1645 $W=0.27
RgQ369 8#44 8#45 29.410927 $L=0.1645 $W=0.27
RgQ370 8#45 MX94/M0#g 432.237946 $L=1.345 $W=0.15
RgQ371 MX110/M3#g 8#46 513.369995 $L=1.61 $W=0.15
RgQ372 8#46 8#47 62.011234 $L=0.43 $W=0.27
RgQ373 8#47 8#48 75.310860 $L=0.43 $W=0.27
RgQ374 8#46 MX113/M3#g 262.729980 $L=0.83 $W=0.15
RgQ375 8#47 MX113/M2#g 260.173065 $L=0.83 $W=0.15
RgQ376 8#47 MX110/M2#g 510.813080 $L=1.61 $W=0.15
RgQ377 8#48 MX113/M1#g 247.426666 $L=0.83 $W=0.15
RgQ378 8#48 8#49 75.310860 $L=0.43 $W=0.27
RgQ379 8#49 MX113/M0#g 260.173065 $L=0.83 $W=0.15
RgQ380 8#48 MX110/M1#g 498.066681 $L=1.61 $W=0.15
RgQ381 8#49 8#50 62.011227 $L=0.43 $W=0.27
RgQ382 8#50 MX80/M0#g 262.729980 $L=0.83 $W=0.15
RgQ383 8#49 MX110/M0#g 510.813080 $L=1.61 $W=0.15
RgQ384 8#50 MX76/M0#g 513.369995 $L=1.61 $W=0.15
RfQ385 8#51 8#52 50.070587 $L=0.665 $W=0.17
RfQ386 8#54 8#55 21.835293 $L=0.29 $W=0.17
RfQ387 8#57 8#58 21.835293 $L=0.29 $W=0.17
RfQ388 8#59 8#60 192.375244 $L=2.63 $W=0.17
RfQ389 8#60 8#62 16.941177 $L=0.225 $W=0.17
ReQ390 8#63 8#64 0.109346 $L=0.21 $W=0.23
ReQ391 8#64 8#65 0.245865 $L=0.47 $W=0.23
ReQ392 8#65 8#66 0.655385 $L=1.3 $W=0.23
ReQ393 8#64 8#67 0.475226 $L=1.07 $W=0.23
ReQ394 8#65 8#68 0.693585 $L=1.285 $W=0.23
RhQ395 MX112/M0#d 8#62 15.000000 $A=0.0289
Rh_2_Q396 MX111/M0#d 8#54 15.000000 $A=0.0289
Rh_2_Q397 MX109/M0#d 8#57 15.000000 $A=0.0289
RjQ398 8#58 8#63 76.000000 $A=0.0578
RjQ399 8#51 8#66 152.000000 $A=0.0289
RjQ400 8#55 8#67 76.000000 $A=0.0578
RjQ401 8#60 8#68 152.000000 $A=0.0289
RiQ402 8#44 8#52 15.000000 $A=0.0289
RiQ403 8#48 8#59 3.750000 $A=0.1156
RmwQ404 MX112/M1#s MX112/M0#d 0.001000 $W=1000000
RmwQ405 MX111/M1#s MX111/M0#d 0.001000 $W=1000000
RmwQ406 MX109/M1#s MX109/M0#d 0.001000 $W=1000000
RmwQ407 MX107/M0#g 8 0.001000 $W=1000000
*
*|NET RN 1.41296e-15
*|P (RN X 0 5.0750 1.7650)
*|I (MX126/M0#g MX126/M0 g X 0 8.4850 0.8000)
*|I (MX126/M1#g MX126/M1 g X 0 8.9150 0.8000)
*|I (MX81/M0#g MX81/M0 g X 0 4.8650 0.8000)
*|I (MX111/M0#g MX111/M0 g X 0 8.4850 3.2800)
*|I (MX111/M1#g MX111/M1 g X 0 8.9150 3.2800)
*|I (MX75/M0#g MX75/M0 g X 0 4.8650 3.2800)
*|S (RN#22 4.8650 1.6300)
*|S (RN#23 4.8650 1.4650)
*|S (RN#24 8.9150 1.6300)
*|S (RN#25 8.7000 1.6300)
*|S (RN#26 8.4750 1.6300)
*|S (RN#27 8.4750 1.4650)
*|S (RN#28 8.9250 1.4650)
*|S (RN#29 8.4750 1.7945)
*|S (RN#30 8.7000 1.6300)
*|S (RN#31 5.0600 1.6300)
*|S (RN#32 4.8650 1.6300)
*|S (RN#33 5.0600 1.6300)
CE1 MX75/M0#g VSS 3.6115e-18
CE2 MX111/M1#g VSS 4.83033e-18
CE3 MX111/M0#g VSS 4.97674e-18
CE4 MX81/M0#g VSS 2.69149e-17
CE5 MX126/M1#g VSS 1.05187e-17
CE6 MX126/M0#g VSS 1.4914e-17
CE7 RN#33 VSS 7.02968e-18
CE8 RN#32 VSS 1.20741e-17
CE9 RN#30 VSS 4.53548e-17
CE10 RN#31 VSS 3.45692e-17
CE11 RN VSS 2.22011e-18
CE12 MX126/M0#g 64#12 2.6473e-18
CE13 MX126/M1#g 64#11 2.63135e-18
CE14 RN 60#6 2.12911e-18
CE15 MX75/M0#g 60#3 1.38241e-18
CE16 MX126/M1#g 64#6 6.22695e-18
CE17 MX126/M0#g 64#3 7.16439e-18
CE18 MX75/M0#g 60#6 7.79706e-18
CE19 RN#30 64#11 4.56886e-18
CE20 RN 60#8 1.83642e-17
CE21 RN#30 64#3 3.5573e-18
CE22 RN#30 64#12 6.85239e-18
CE23 RN#30 8#65 5.36891e-18
CE24 RN#30 8#68 4.923e-18
CE25 RN#30 8#60 4.69132e-18
CE26 MX111/M1#g 8#67 4.35277e-18
CE27 MX111/M0#g 8#66 3.91388e-18
CE28 MX111/M0#g 8#67 1.84932e-18
CE29 MX111/M1#g 8#58 1.63687e-18
CE30 RN#30 8#66 1.03927e-17
CE31 MX111/M1#g 8#55 7.74212e-18
CE32 MX111/M0#g 8#55 8.09421e-18
CE33 RN#31 7#30 4.77884e-18
CE34 RN#30 7#27 6.39221e-17
CE35 RN#30 7#28 9.42379e-17
CE36 RN#30 7#29 1.05361e-17
CE37 RN#30 7#30 2.12314e-17
CE38 RN 6#17 2.52753e-17
CE39 RN#31 6#19 1.46358e-17
CE40 RN#31 6#20 7.42576e-18
CE41 MX75/M0#g 5#29 5.4889e-18
CE42 MX81/M0#g 5#35 4.10824e-18
CE43 MX81/M0#g 5#36 2.70375e-18
CE44 MX75/M0#g 5#25 1.96715e-18
CE45 RN 5#39 2.31343e-17
CE46 RN 5#38 3.59125e-17
CE47 RN#32 5#36 1.50015e-17
CE48 RN#31 5#39 2.33245e-17
CE49 RN#32 5#35 1.2753e-17
CE50 RN#30 5#33 6.45951e-17