*
*|DSPF 1.5
*
*|DATE "Fri Feb 28 12:08:15 2025"
*|VENDOR "Cadence Design Systems"
*|PROGRAM "Cadence Quantus Extraction"
*|VERSION "22.1.0-p089 Linux 64 bit - (Thu Jan 19 11:47:08 PST 2023)"
*|DESIGN "TBUFX1_LP"
*|DIVIDER /
*|DELIMITER #
*|DeviceFingerDelim "@"
*|BUSBIT []
*|GLOBAL_TEMPERATURE 25
*|OPERATING_TEMPERATURE 25
** QRC_TECH_DIR /vols/wfo_devel/projects/reference_SKY130/tech/sky130_release_0.0.4/quantus/extraction/typical 
** HIERARCHICAL_SPLIT_PINS_DELIMITER '%'
** caps2d version: 10
*
.SUBCKT  TBUFX1_LP A OE VDD VSS Y
*
*Net Section
*
*|GROUND_NET VSS
*
*|NET VSS 1.17013e-15
*|P (VSS X 0 1.7350 0.0050)
*|I (MX31/M0#s MX31/M0 s X 0 1.4105 0.8000)
*|I (MX30/M0#s MX30/M0 s X 0 1.6895 0.8000)
*|I (MX25/M0#s MX25/M0 s X 0 0.8295 0.8000)
*|I (MX24/M0#s MX24/M0 s X 0 3.1295 0.8000)
*|I (MX20/M0#s MX20/M0 s X 0 0.5505 0.8000)
*|S (VSS#1 3.6795 0.0000)
*|S (VSS#2 2.9900 0.0000)
*|S (VSS#3 1.8400 0.0000)
*|S (VSS#4 1.8400 0.0000)
*|S (VSS#6 1.5500 0.0000)
*|S (VSS#7 0.6900 0.0000)
*|S (VSS#8 0.0000 0.0000)
*|S (VSS#10 2.9900 0.8000)
*|S (VSS#12 1.5500 0.8000)
*|S (VSS#14 0.6900 0.8000)
*|S (VSS#15 1.8400 0.0000)
RfD44 VSS#1 VSS#2 35.027210 $L=0.6895 $W=0.25
RfD45 VSS#2 VSS#3 58.604813 $L=1.15 $W=0.25
RfD46 VSS#3 VSS#6 14.572811 $L=0.29 $W=0.25
RfD47 VSS#6 VSS#7 43.481621 $L=0.86 $W=0.25
RfD48 VSS#7 VSS#8 35.052811 $L=0.69 $W=0.25
RfD49 VSS#2 VSS#10 53.627445 $L=0.8 $W=0.17
RfD50 VSS#6 VSS#12 53.627445 $L=0.8 $W=0.17
RfD51 VSS#7 VSS#14 53.627445 $L=0.8 $W=0.17
ReD52 VSS#15 VSS 0.032812 $L=0.105 $W=0.4
RhD53 MX24/M0#s VSS#10 15.000000 $A=0.0289
RhD54 MX31/M0#s VSS#12 15.000000 $A=0.0289
RhD55 MX25/M0#s VSS#14 15.000000 $A=0.0289
Rh_3_D56 VSS#4 VSS#3 2.142857 $A=0.2023
RjD57 VSS#3 VSS#15 21.714285 $A=0.2023
RmwD58 MX30/M0#s MX31/M0#s 0.001000 $W=1000000
RmwD59 MX20/M0#s MX25/M0#s 0.001000 $W=1000000
*
*|NET Y 6.64733e-16
*|P (Y X 0 3.2350 2.2750)
*|I (MX24/M0#d MX24/M0 d X 0 3.2805 0.8000)
*|I (MX22/M0#d MX22/M0 d X 0 3.2805 3.2400)
*|S (Y#2 3.4200 3.2400)
*|S (Y#3 3.4200 3.0250)
*|S (Y#4 3.4200 0.9350)
*|S (Y#6 3.4200 0.8000)
*|S (Y#7 3.4200 0.9350)
*|S (Y#8 3.3125 1.2595)
*|S (Y#9 3.3125 2.7000)
*|S (Y#10 3.4200 3.0250)
CE1 Y#9 VSS 6.96614e-18
CE2 Y#8 VSS 7.00732e-17
CE3 Y#4 VSS 2.83881e-17
CE4 Y#3 VSS 4.19607e-18
CE5 Y VSS 1.13833e-17
CE6 Y#3 3#13 3.18194e-18
CE7 Y#8 3#19 3.72181e-17
CE8 Y#9 3#15 4.06718e-17
CE9 Y 3#17 3.70628e-17
CE10 Y#3 3#15 5.94309e-18
CE11 Y#8 MX21/M0#d 5.94076e-18
CE12 Y 3#13 3.86904e-17
CE13 Y#9 3#17 9.45112e-18
CE14 Y#4 3#19 5.77084e-18
CE15 Y#4 3#13 4.0136e-18
CE16 Y#3 3 1.13878e-17
CE17 Y#8 3#17 1.4008e-17
CE18 Y#9 MX23/M0#d 5.23516e-18
CE19 Y#8 2 1.36955e-18
CE20 Y#4 2 8.46496e-18
CE21 Y#8 2#12 1.24732e-17
CE22 Y#8 VSS#1 3.7412e-18
CE23 Y#8 VSS#15 3.83818e-17
CE24 Y#4 VSS#1 4.64541e-18
CE25 Y#8 VSS#2 4.34397e-18
CE26 Y#8 MX24/M0#s 1.55961e-17
CE27 Y#4 MX24/M0#s 2.09942e-17
CE28 Y#4 VSS#15 5.74316e-18
RfE60 Y#2 Y#3 16.188236 $L=0.215 $W=0.17
RfE61 Y#4 Y#6 10.164705 $L=0.135 $W=0.17
ReE62 Y#7 Y#8 0.091222 $L=0.3245 $W=0.445
ReE63 Y#8 Y 0.488051 $L=1.015 $W=0.26
ReE64 Y Y#9 0.204397 $L=0.425 $W=0.26
ReE65 Y#9 Y#10 0.112646 $L=0.3245 $W=0.445
RhE66 MX24/M0#d Y#6 15.000000 $A=0.0289
Rh_2_E67 MX22/M0#d Y#2 15.000000 $A=0.0289
RjE68 Y#4 Y#7 76.000000 $A=0.0578
RjE69 Y#3 Y#10 76.000000 $A=0.0578
*
*|NET 1 8.2541e-16
*|I (MX31/M0#g MX31/M0 g X 0 1.3350 0.8000)
*|I (MX20/M0#d MX20/M0 d X 0 0.3995 0.8000)
*|I (MX29/M0#g MX29/M0 g X 0 1.3350 3.2800)
*|I (MX19/M0#d MX19/M0 d X 0 0.3995 3.2800)
*|S (1 1.3350 3.2800)
*|S (1#8 1.3350 1.9650)
*|S (1#9 1.3350 1.8000)
*|S (1#10 0.2600 3.3850)
*|S (1#12 0.2600 3.2800)
*|S (1#14 0.2600 0.8000)
*|S (1#15 0.2600 0.7550)
*|S (1#16 1.3350 1.9650)
*|S (1#17 0.2600 1.9650)
*|S (1#18 0.2600 3.3850)
*|S (1#19 0.2600 3.2400)
*|S (1#20 0.2600 1.9650)
*|S (1#21 0.2600 1.8200)
*|S (1#22 0.2600 0.8995)
*|S (1#23 0.2600 0.7550)
CF1 MX19/M0#d VSS 2.19806e-18
CF2 MX31/M0#g VSS 1.49106e-17
CF3 1#23 VSS 4.13497e-17
CF4 1#20 VSS 3.2442e-17
CF5 1#18 VSS 1.52713e-19
CF6 1#16 VSS 1.87558e-17
CF7 1#15 VSS 4.77162e-18
CF8 1#17 VSS 3.07972e-17
CF9 1 VSS 3.90098e-18
CF10 1 10 8.17266e-18
CF11 1#18 10 3.81265e-18
CF12 MX31/M0#g 2#13 3.9389e-18
CF13 1#16 2#19 3.79444e-18
CF14 MX31/M0#g 2#19 2.74725e-18
CF15 1#15 2#19 2.41809e-18
CF16 1 2#15 2.38714e-18
CF17 1#18 2#15 9.5363e-18
CF18 1#16 2#13 2.71301e-17
CF19 1#16 2#8 5.20349e-18
CF20 1#16 2#17 1.5436e-17
CF21 MX31/M0#g 2#8 5.289e-18
CF22 1#23 2#19 1.23371e-17
CF23 1 MX29/M0#d 7.75857e-18
CF24 1#20 2#13 4.46596e-18
CF25 1#20 2#18 4.53123e-18
CF26 1#23 2#18 8.75471e-18
CF27 1#20 2#17 1.06822e-17
CF28 1#23 VSS#8 3.50498e-18
CF29 1#23 VSS#7 2.36792e-18
CF30 MX31/M0#g VSS#15 1.86155e-18
CF31 1#16 VSS#15 1.56132e-18
CF32 1#15 MX25/M0#s 1.89736e-17
CF33 MX31/M0#g VSS#6 4.29097e-18
CF34 1#17 VSS#15 4.24695e-18
CF35 1#15 VSS#8 4.62784e-18
CF36 1#23 MX25/M0#s 8.67958e-18
CF37 MX31/M0#g MX31/M0#s 6.23253e-18
CF38 1#15 VSS#15 5.16478e-18
CF39 1#23 VSS#15 2.43669e-17
CF40 1#17 MX25/M0#s 5.45531e-18
RgF70 1 1#8 403.712433 $L=1.315 $W=0.15
RgF71 1#8 1#9 34.134449 $L=0.1645 $W=0.27
RgF72 1#9 MX31/M0#g 321.377960 $L=1 $W=0.15
RfF73 1#10 1#12 7.905882 $L=0.105 $W=0.17
RfF74 1#14 1#15 3.388236 $L=0.045 $W=0.17
RfF75 1#16 1#17 80.941177 $L=1.075 $W=0.17
ReF76 1#18 1#19 0.083049 $L=0.1445 $W=0.23
ReF77 1#19 1#20 0.914203 $L=1.275 $W=0.17
ReF78 1#20 1#21 0.083049 $L=0.1445 $W=0.23
ReF79 1#21 1#22 0.676742 $L=0.92 $W=0.17
ReF80 1#22 1#23 0.083049 $L=0.1445 $W=0.23
RhF81 MX20/M0#d 1#14 15.000000 $A=0.0289
Rh_2_F82 MX19/M0#d 1#12 15.000000 $A=0.0289
RjF83 1#10 1#18 152.000000 $A=0.0289
RjF84 1#17 1#20 152.000000 $A=0.0289
RjF85 1#15 1#23 152.000000 $A=0.0289
RiF86 1#8 1#16 15.000000 $A=0.0289
RmwF87 MX29/M0#g 1 0.001000 $W=1000000
*
*|NET 3 8.46021e-16
*|I (MX21/M0#d MX21/M0 d X 0 2.2705 0.8000)
*|I (MX23/M0#d MX23/M0 d X 0 2.3605 3.2800)
*|I (MX22/M0#g MX22/M0 g X 0 3.2050 3.2400)
*|I (MM1#s MM1 s X 0 2.6395 3.2800)
*|S (3 3.2050 3.2400)
*|S (3#5 3.2050 2.0995)
*|S (3#6 3.2050 1.9650)
*|S (3#7 2.5000 3.3850)
*|S (3#9 2.5000 3.2800)
*|S (3#10 2.4900 0.9300)
*|S (3#12 2.4100 0.8000)
*|S (3#13 3.2050 1.9650)
*|S (3#14 2.5000 1.9650)
*|S (3#15 2.5000 3.3850)
*|S (3#16 2.5000 3.2400)
*|S (3#17 2.5000 1.9650)
*|S (3#18 2.5000 1.8200)
*|S (3#19 2.4900 1.0745)
*|S (3#20 2.4900 0.9300)
CH1 MX23/M0#d VSS 2.1683e-18
CH2 MX21/M0#d VSS 1.17506e-17
CH3 3#19 VSS 1.54601e-17
CH4 3#17 VSS 5.87982e-18
CH5 3#15 VSS 4.01566e-18
CH6 3#13 VSS 1.94719e-17
CH7 3#14 VSS 2.11737e-17
CH8 3 VSS 1.53352e-18
CH9 MX21/M0#d 12 2.09137e-17
CH10 3#19 12 3.441e-18
CH11 MX21/M0#d VSS#4 4.20784e-18
CH12 3#19 MX24/M0#s 3.54685e-18
CH13 3#13 VSS#15 2.02379e-18
CH14 3#19 VSS#2 1.74467e-18
CH15 3#13 MX24/M0#s 8.1612e-18
CH16 MX21/M0#d VSS#15 9.17212e-18
CH17 MX21/M0#d VSS#2 5.59699e-18
CH18 MX21/M0#d MX24/M0#s 2.17479e-17
CH19 3#19 VSS#15 1.61938e-17
RgH107 3 3#5 366.356506 $L=1.14 $W=0.15
RgH108 3#5 3#6 25.613562 $L=0.1345 $W=0.33
RfH109 3#7 3#9 7.905882 $L=0.105 $W=0.17
RfH110 3#10 3#12 5.042424 $L=0.13 $W=0.33
RfH111 3#13 3#14 53.082352 $L=0.705 $W=0.17
ReH112 3#15 3#16 0.088170 $L=0.1445 $W=0.23
ReH113 3#16 3#17 1.097370 $L=1.275 $W=0.14
ReH114 3#17 3#18 0.088170 $L=0.1445 $W=0.23
ReH115 3#18 3#19 0.665450 $L=0.745 $W=0.14
ReH116 3#19 3#20 0.088170 $L=0.1445 $W=0.23
RhH117 MX21/M0#d 3#12 15.000000 $A=0.0289
Rh_2_H118 MX23/M0#d 3#9 15.000000 $A=0.0289
RjH119 3#7 3#15 152.000000 $A=0.0289
RjH120 3#14 3#17 152.000000 $A=0.0289
RjH121 3#10 3#20 152.000000 $A=0.0289
RiH122 3#6 3#13 15.000000 $A=0.0289
RmwH123 MX22/M0#g 3 0.001000 $W=1000000
RmwH124 MM1#s MX23/M0#d 0.001000 $W=1000000
*
*|NET OE 9.01925e-16
*|P (OE X 0 0.9350 2.4450)
*|I (MX21/M0#g MX21/M0 g X 0 2.1950 0.8000)
*|I (MX20/M0#g MX20/M0 g X 0 0.4750 0.8000)
*|I (MX19/M0#g MX19/M0 g X 0 0.4750 3.2800)
*|I (MM1#g MM1 g X 0 2.7150 3.2800)
*|S (OE#15 0.4150 2.4745)
*|S (OE#16 0.4150 2.3100)
*|S (OE#17 0.4150 2.1450)
*|S (OE#18 2.4495 2.3100)
*|S (OE#19 2.2850 2.3100)
*|S (OE#20 2.1950 2.1750)
*|S (OE#21 2.2850 2.3100)
*|S (OE#22 0.9200 2.3100)
*|S (OE#23 0.4150 2.3100)
*|S (OE#24 0.9200 2.3100)
CB1 MM1#g VSS 3.20488e-18
CB2 MX19/M0#g VSS 2.14116e-18
CB3 MX20/M0#g VSS 1.45689e-17
CB4 MX21/M0#g VSS 2.68497e-17
CB5 OE#24 VSS 1.25632e-17
CB6 OE#23 VSS 1.53948e-18
CB7 OE#21 VSS 7.02579e-18
CB8 OE#22 VSS 4.75805e-18
CB9 OE VSS 1.63468e-18
CB10 MX19/M0#g 10 2.22915e-18
CB11 OE 10 1.98675e-17
CB12 OE#21 MX23/M0#d 2.98214e-18
CB13 OE#21 3#14 1.95078e-17
CB14 OE#21 3#17 1.61052e-17
CB15 MX21/M0#g MX21/M0#d 7.83744e-18
CB16 MM1#g MX23/M0#d 7.14728e-18
CB17 MM1#g 3#14 6.03779e-18
CB18 MX20/M0#g 2#8 1.42428e-18
CB19 OE#22 2#13 1.37883e-18
CB20 OE MX29/M0#d 1.19643e-18
CB21 OE#22 2#17 1.66903e-17
CB22 OE 2#17 9.55616e-18
CB23 OE 2#15 3.69259e-17
CB24 MX21/M0#g 2#12 8.23482e-18
CB25 OE#24 2#19 5.49117e-18
CB26 OE#21 2#13 9.38332e-18
CB27 OE#24 2#17 2.72709e-17
CB28 OE#21 2#12 9.21068e-18
CB29 OE#23 MX19/M0#d 4.07626e-18
CB30 MX20/M0#g 1#17 3.83378e-18
CB31 MX20/M0#g 1#23 2.22846e-18
CB32 MX19/M0#g 1#18 1.96394e-18
CB33 OE MX19/M0#d 1.90569e-18
CB34 OE#24 1#16 1.90194e-17
CB35 OE#23 1#17 3.90436e-17
CB36 OE#22 1#17 1.01704e-17
CB37 OE 1#20 1.75189e-17
CB38 OE 1#18 2.46682e-17
CB39 OE#23 1#20 2.33955e-17
CB40 OE#24 1#17 7.66609e-18
CB41 OE#24 1#20 2.45499e-17
CB42 OE#22 1#16 5.68196e-17
CB43 MX19/M0#g MX19/M0#d 1.04973e-17
CB44 MX20/M0#g 1#15 7.67171e-18
CB45 MX20/M0#g VSS#7 4.29097e-18
CB46 OE#24 VSS#7 2.08999e-18
CB47 MX21/M0#g VSS#15 4.8201e-18
CB48 MX20/M0#g MX25/M0#s 7.3052e-18
CB49 MX20/M0#g VSS#15 4.8201e-18
CB50 MX21/M0#g VSS#4 5.74683e-18
CB51 MX19/M0#g VDD#7 4.31255e-18
CB52 OE#23 MX19/M0#s 4.28125e-18
CB53 OE#21 VDD#15 2.59995e-18
CB54 OE#22 MX19/M0#s 2.06698e-18
CB55 OE VDD#7 1.78521e-18
CB56 OE#24 VDD 1.77889e-18
CB57 MM1#g MX23/M0#s 1.61542e-18
CB58 MX19/M0#g MX19/M0#s 9.07616e-18
CB59 MX19/M0#g VDD 1.16474e-17
CB60 OE#22 VDD 1.26494e-17
CB61 MM1#g VDD#15 5.21861e-18
CB62 OE VDD#15 1.3548e-17
CB63 OE MX19/M0#s 6.9932e-18
CB64 MM1#g MX22/M0#s 8.42278e-18
CB65 MX19/M0#g VDD#15 5.21861e-18
CB66 OE#23 VDD 1.45779e-17
CB67 OE#21 VDD 2.33762e-17
CB68 OE#21 MX23/M0#s 7.89792e-18
CB69 MM1#g VDD#2 5.77573e-18
CB70 OE VDD 4.97697e-18
CB71 MM1#g VDD 1.74768e-17
RgB14 MX19/M0#g OE#15 258.717957 $L=0.805 $W=0.15
RgB15 OE#15 OE#16 38.857975 $L=0.1645 $W=0.27
RgB16 OE#16 OE#17 29.410927 $L=0.1645 $W=0.27
RgB17 OE#17 MX20/M0#g 432.237946 $L=1.345 $W=0.15
RgB18 MM1#g OE#18 356.342041 $L=1.175 $W=0.15
RgB19 OE#18 OE#19 30.460598 $L=0.1645 $W=0.27
RgB20 OE#19 OE#20 21.669903 $L=0.1345 $W=0.3
RgB21 OE#20 MX21/M0#g 441.873505 $L=1.375 $W=0.15
RfB22 OE#21 OE#22 102.776474 $L=1.365 $W=0.17
RfB23 OE#22 OE#23 38.023529 $L=0.505 $W=0.17
ReB24 OE OE#24 0.064904 $L=0.135 $W=0.26
RjB25 OE#22 OE#24 152.000000 $A=0.0289
RiB26 OE#19 OE#21 15.000000 $A=0.0289
RiB27 OE#16 OE#23 15.000000 $A=0.0289
*
*|NET 2 1.05529e-15
*|I (MX31/M0#d MX31/M0 d X 0 1.2595 0.8000)
*|I (MX25/M0#d MX25/M0 d X 0 0.9805 0.8000)
*|I (MX24/M0#g MX24/M0 g X 0 3.2050 0.8000)
*|I (MX29/M0#d MX29/M0 d X 0 1.4105 3.2800)
*|S (2 3.2050 0.8000)
*|S (2#4 2.8295 1.5000)
*|S (2#5 2.6650 1.6250)
*|S (2#7 1.1200 0.8000)
*|S (2#8 1.1200 0.7550)
*|S (2#9 1.5500 3.3850)
*|S (2#11 1.5500 3.2800)
*|S (2#12 2.6650 1.6250)
*|S (2#13 1.4550 1.6250)
*|S (2#14 1.5500 3.3850)
*|S (2#15 1.5500 3.2400)
*|S (2#16 1.4550 1.7695)
*|S (2#17 1.4550 1.6250)
*|S (2#18 1.4550 1.4800)
*|S (2#19 1.2345 0.7550)
*|S (2#20 1.1200 0.7550)
CG1 2#19 VSS 6.48182e-18
CG2 2#18 VSS 1.80587e-17
CG3 2#17 VSS 1.03325e-17
CG4 2#15 VSS 4.1039e-18
CG5 2#12 VSS 2.80687e-17
CG6 2#8 VSS 6.35616e-18
CG7 2#13 VSS 2.29925e-17
CG8 2 VSS 1.71958e-17
CG9 2#13 12 4.86239e-18
CG10 2#15 10 1.32093e-17
CG11 MX29/M0#d 10 2.35882e-17
CG12 2 12 5.51048e-19
CG13 2#19 12 7.76009e-18
CG14 2#12 12 2.72511e-18
CG15 2 MX21/M0#d 3.5385e-18
CG16 2#17 3#17 2.99345e-18
CG17 2#19 MX21/M0#d 2.77839e-18
CG18 2 3#13 2.00213e-18
CG19 MX29/M0#d 3#15 1.86817e-18
CG20 2#18 3#17 1.66612e-18
CG21 2#15 MX23/M0#d 1.47224e-18
CG22 2#12 3#14 4.56119e-17
CG23 2#12 3#17 3.05448e-17
CG24 2#19 3#19 1.04584e-17
CG25 2#18 3#19 1.41768e-17
CG26 2#12 MX21/M0#d 9.13835e-18
CG27 2#15 3#15 1.57228e-17
CG28 2#13 VSS#15 4.81275e-18
CG29 2#19 VSS#6 4.63195e-18
CG30 2 VSS#2 4.29097e-18
CG31 2#19 VSS#7 2.98554e-18
CG32 2 VSS#15 2.7503e-18
CG33 2#8 VSS#7 2.39573e-18
CG34 2#19 VSS#15 3.7056e-17
CG35 2#13 MX31/M0#s 6.34404e-18
CG36 2#8 VSS#15 5.16478e-18
CG37 2#12 VSS#15 8.63879e-18
CG38 2#8 MX25/M0#s 1.9805e-17
CG39 2 MX24/M0#s 8.1343e-18
CG40 2#19 MX31/M0#s 2.67293e-17
CG41 2#8 MX31/M0#s 1.882e-17
CG42 2#19 MX25/M0#s 7.15744e-18
RgG88 2 2#4 324.200043 $L=1.075 $W=0.15
RgG89 2#4 2#5 38.378212 $L=0.1645 $W=0.335
RfG90 2#7 2#8 3.388236 $L=0.045 $W=0.17
RfG91 2#9 2#11 7.905882 $L=0.105 $W=0.17
RfG92 2#12 2#13 91.105881 $L=1.21 $W=0.17
ReG93 2#14 2#15 0.078668 $L=0.1445 $W=0.23
ReG94 2#15 2#16 1.312772 $L=1.47 $W=0.135
ReG95 2#16 2#17 0.097672 $L=0.1445 $W=0.23
ReG96 2#17 2#18 0.078668 $L=0.1445 $W=0.23
ReG97 2#18 2#19 0.829013 $L=0.99 $W=0.14
ReG98 2#19 2#20 0.062765 $L=0.1145 $W=0.29
RhG99 MX31/M0#d 2#7 15.000000 $A=0.0289
Rh_2_G100 MX29/M0#d 2#11 15.000000 $A=0.0289
RjG101 2#9 2#14 152.000000 $A=0.0289
RjG102 2#13 2#17 152.000000 $A=0.0289
RjG103 2#8 2#20 152.000000 $A=0.0289
RiG104 2#5 2#12 15.000000 $A=0.0289
RmwG105 MX25/M0#d MX31/M0#d 0.001000 $W=1000000
RmwG106 MX24/M0#g 2 0.001000 $W=1000000
*
*|NET 10 1.53603e-16
*|I (MX29/M0#s MX29/M0 s X 0 1.2595 3.2800)
*|I (MM0#d MM0 d X 0 0.9805 3.2800)
*|S (10 1.1200 3.2350)
CI1 10 VSS 2.18073e-18
RmwI125 MX29/M0#s 10 0.001000 $W=1000000
RmwI126 MM0#d 10 0.001000 $W=1000000
*
*|NET 12 9.65762e-17
*|I (MX30/M0#d MX30/M0 d X 0 1.8405 0.8000)
*|I (MX21/M0#s MX21/M0 s X 0 2.1195 0.8000)
*|S (12 1.9800 0.8000)
CI2 12 VSS 2.19525e-17
CI3 12 VSS#4 6.01954e-18
CI4 12 MX31/M0#s 2.06194e-17
CI5 12 VSS#15 7.73133e-18
RmwI127 MX30/M0#d 12 0.001000 $W=1000000
RmwI128 MX21/M0#s 12 0.001000 $W=1000000
*
*|NET A 8.06483e-16
*|P (A X 0 1.8550 2.2600)
*|I (MX30/M0#g MX30/M0 g X 0 1.7650 0.8000)
*|I (MX25/M0#g MX25/M0 g X 0 0.9050 0.8000)
*|I (MX23/M0#g MX23/M0 g X 0 2.2850 3.2800)
*|I (MM0#g MM0 g X 0 0.9050 3.2800)
*|S (A#15 0.9050 2.6500)
*|S (A#16 0.9050 2.4850)
*|S (A#17 1.7550 2.7400)
*|S (A#18 1.7550 2.6500)
*|S (A#19 1.7550 2.4850)
*|S (A#20 1.8400 2.6500)
*|S (A#21 1.7550 2.6500)
*|S (A#22 0.9050 2.6500)
*|S (A#23 1.8400 2.6500)
CA1 MM0#g VSS 4.77495e-18
CA2 MX23/M0#g VSS 4.08047e-18
CA3 MX25/M0#g VSS 1.6599e-17
CA4 MX30/M0#g VSS 2.64946e-17
CA5 A#23 VSS 1.01351e-18
CA6 A#22 VSS 1.48084e-18
CA7 A#21 VSS 3.27654e-18
CA8 A VSS 1.13152e-17
CA9 MM0#g 10 7.72956e-18
CA10 A#22 10 2.3274e-17
CA11 A#21 3#15 1.881e-18
CA12 A 3#14 5.04819e-18
CA13 MX23/M0#g MX23/M0#d 7.11612e-18
CA14 A#21 3#17 4.92022e-18
CA15 A#23 3#15 1.40358e-17
CA16 A 3#17 3.59746e-17
CA17 A#23 3#17 1.36192e-17
CA18 MX23/M0#g MX29/M0#d 2.15494e-18
CA19 MM0#g MX29/M0#d 1.43725e-18
CA20 MX25/M0#g 2#8 5.289e-18
CA21 A#23 2#17 1.48529e-17
CA22 A 2#13 2.44753e-17
CA23 A#21 2#15 1.96589e-17
CA24 MX30/M0#g 2#13 8.789e-18
CA25 A#21 MX29/M0#d 1.29144e-17
CA26 A#23 2#15 6.09873e-17
CA27 A 2#17 9.44437e-17
CA28 A#22 1#18 3.29986e-18
CA29 MX25/M0#g 1#16 2.14277e-18
CA30 A 1#16 5.47289e-18
CA31 A#22 1#20 4.60445e-18
CA32 A#22 1 4.39867e-18
CA33 A#21 1 4.67169e-18
CA34 A VSS#4 3.48849e-18
CA35 MX30/M0#g VSS#4 5.74683e-18
CA36 MX25/M0#g VSS#7 5.74683e-18
CA37 MX25/M0#g MX25/M0#s 6.21439e-18
CA38 MX25/M0#g VSS#15 4.8201e-18
CA39 MX30/M0#g MX31/M0#s 6.21439e-18
CA40 MX30/M0#g VSS#15 4.33444e-18
CA41 MM0#g VDD#15 3.9052e-18
CA42 MM0#g VDD#7 3.77064e-18
CA43 A#22 VDD#15 3.49146e-18
CA44 A#21 VDD#15 3.05409e-18
CA45 A#23 VDD#5 2.30831e-18
CA46 A#21 VDD#5 2.1955e-18
CA47 MX23/M0#g MX22/M0#s 1.7843e-18
CA48 MM0#g VDD 1.43761e-17
CA49 MX23/M0#g VDD#15 5.21861e-18
CA50 A#23 VDD 9.90706e-18
CA51 MX23/M0#g VDD 1.42638e-17
CA52 A#21 MX23/M0#s 1.11809e-17
CA53 MX23/M0#g MX23/M0#s 8.95937e-18
CA54 MM0#g MX19/M0#s 7.72538e-18
CA55 A#23 VDD#15 1.2935e-17
CA56 A#22 VDD 1.35231e-17
CA57 MX23/M0#g VDD#5 4.31255e-18
CA58 A#21 VDD 1.64552e-17
CA59 A#22 MX19/M0#s 8.56038e-18
CA60 MX25/M0#g OE#24 2.88039e-18
CA61 A#22 OE#22 5.24066e-17
CA62 A OE#21 2.15452e-17
CA63 A#23 OE#21 4.91247e-18
CA64 A#22 OE 2.47775e-17
CA65 A#21 OE#22 2.05426e-17
CA66 MX23/M0#g OE#21 6.2347e-18
CA67 A#21 OE#21 3.64643e-17
RgA1 MM0#g A#15 183.599075 $L=0.63 $W=0.15
RgA2 A#15 A#16 34.134449 $L=0.1645 $W=0.27
RgA3 A#16 MX25/M0#g 541.491272 $L=1.685 $W=0.15
RgA4 MX23/M0#g A#17 294.124146 $L=1.07 $W=0.15
RgA5 A#17 A#18 17.624519 $L=0.09 $W=0.27
RgA6 A#18 A#19 29.410925 $L=0.1645 $W=0.27
RgA7 A#19 MX30/M0#g 541.491272 $L=1.685 $W=0.15
RfA8 A#20 A#21 6.400000 $L=0.085 $W=0.17
RfA9 A#21 A#22 64.000000 $L=0.85 $W=0.17
ReA10 A A#23 0.187500 $L=0.39 $W=0.26
RjA11 A#20 A#23 152.000000 $A=0.0289
RiA12 A#18 A#21 15.000000 $A=0.0289
RiA13 A#15 A#22 15.000000 $A=0.0289
*
*|NET VDD 9.91271e-16
*|P (VDD X 0 1.7150 4.1450)
*|I (MX23/M0#s MX23/M0 s X 0 2.2095 3.2800)
*|I (MX22/M0#s MX22/M0 s X 0 3.1295 3.2400)
*|I (MX19/M0#s MX19/M0 s X 0 0.5505 3.2800)
*|I (MM0#s MM0 s X 0 0.8295 3.2800)
*|I (MM1#d MM1 d X 0 2.7905 3.2800)
*|S (VDD#1 3.6795 4.1400)
*|S (VDD#2 2.9900 4.1400)
*|S (VDD#3 2.0700 4.1400)
*|S (VDD#4 1.8400 4.1400)
*|S (VDD#5 1.8400 4.1400)
*|S (VDD#7 0.6900 4.1400)
*|S (VDD#8 0.0000 4.1400)
*|S (VDD#10 2.9900 3.2400)
*|S (VDD#12 2.0700 3.2800)
*|S (VDD#14 0.6900 3.2800)
*|S (VDD#15 1.8400 4.1400)
CC1 MX19/M0#s VSS 3.2916e-18
CC2 MX22/M0#s VSS 9.46429e-19
CC3 VDD#15 VSS 7.87033e-18
CC4 VDD#7 VSS 1.25032e-18
CC5 VDD#2 VSS 3.10872e-18
CC6 VDD#1 VSS 1.00576e-18
CC7 VDD#5 VSS 6.65538e-19
CC8 VDD VSS 2.30376e-18
CC9 VDD#7 10 6.06011e-18
CC10 VDD#15 10 7.41882e-18
CC11 VDD 10 6.86286e-18
CC12 MX19/M0#s 10 2.91978e-17
CC13 VDD#5 3#15 3.18157e-18
CC14 VDD#5 MX23/M0#d 3.10944e-18
CC15 VDD#15 3 2.98159e-18
CC16 VDD#2 3#15 2.43946e-18
CC17 VDD 3#19 2.40309e-18
CC18 VDD#15 3#13 1.72982e-18
CC19 MX22/M0#s 3 1.07057e-17
CC20 MX23/M0#s MX23/M0#d 2.51056e-17
CC21 VDD#15 MX23/M0#d 5.37205e-18
CC22 MX22/M0#s 3#15 1.06208e-17
CC23 VDD 3#17 1.09162e-17
CC24 VDD 3#15 4.50854e-18
CC25 MX22/M0#s MX23/M0#d 2.27607e-17
CC26 VDD#2 3 4.34129e-18
CC27 VDD#15 3#15 2.1928e-17
CC28 MX22/M0#s 3#13 8.08454e-18
CC29 VDD 3 1.56506e-17
CC30 MX23/M0#s 3#15 9.2188e-18
CC31 VDD#15 MX29/M0#d 4.91371e-18
CC32 VDD 2#15 3.10103e-18
CC33 VDD#15 2#15 2.05808e-17
CC34 MX23/M0#s 2#15 8.90725e-18
CC35 VDD#5 MX29/M0#d 6.04287e-18
CC36 MX23/M0#s MX29/M0#d 1.8253e-17
CC37 VDD#5 2#15 5.03046e-18
CC38 VDD#8 1#18 3.55454e-18
CC39 VDD#15 1 3.28772e-18
CC40 MX23/M0#s 1 2.46992e-18
CC41 VDD#7 1#18 2.41749e-18
CC42 VDD MX19/M0#d 2.08957e-18
CC43 VDD#5 1 5.03314e-18
CC44 MX19/M0#s MX19/M0#d 2.4173e-17
CC45 VDD#8 MX19/M0#d 4.64656e-18
CC46 VDD#15 1#18 2.43669e-17
CC47 VDD#15 MX19/M0#d 5.31934e-18
CC48 VDD 1 1.36325e-17
CC49 MX19/M0#s 1#18 9.90126e-18
CC50 VDD 1#20 2.86726e-17
CC51 VDD 1#18 3.72173e-17
CC52 VDD Y#8 2.97638e-18
CC53 VDD#1 Y#9 2.49243e-18
CC54 MX22/M0#s Y#9 1.89667e-17
CC55 VDD#1 Y#3 4.68586e-18
CC56 VDD#15 Y#3 5.30702e-18
CC57 VDD Y#9 5.78343e-17
CC58 MX22/M0#s Y#3 3.00526e-17
CC59 VDD#2 Y#9 4.88009e-18
CC60 VDD#15 Y#9 3.6242e-17
CC61 VDD Y#3 2.42269e-17
CC62 VDD Y 2.17331e-17
RfC28 VDD#1 VDD#2 35.027210 $L=0.6895 $W=0.25
RfC29 VDD#2 VDD#3 46.553623 $L=0.92 $W=0.25
RfC30 VDD#3 VDD#4 11.500811 $L=0.23 $W=0.25
RfC31 VDD#4 VDD#7 58.604813 $L=1.15 $W=0.25
RfC32 VDD#7 VDD#8 35.052811 $L=0.69 $W=0.25
RfC33 VDD#2 VDD#10 61.156857 $L=0.9 $W=0.17
RfC34 VDD#3 VDD#12 58.145092 $L=0.86 $W=0.17
RfC35 VDD#7 VDD#14 58.145092 $L=0.86 $W=0.17
ReC36 VDD#15 VDD 0.039062 $L=0.125 $W=0.4
Rh_1_C37 VDD#5 VDD#4 2.142857 $A=0.2023
Rh_2_C38 MX22/M0#s VDD#10 15.000000 $A=0.0289
Rh_2_C39 MX23/M0#s VDD#12 15.000000 $A=0.0289
Rh_2_C40 MX19/M0#s VDD#14 15.000000 $A=0.0289
RjC41 VDD#4 VDD#15 21.714285 $A=0.2023
RmwC42 MM0#s MX19/M0#s 0.001000 $W=1000000
RmwC43 MM1#d MX22/M0#s 0.001000 $W=1000000
*
*Instance Section
*
MX31/M0	MX31/M0#d	MX31/M0#g	MX31/M0#s	VSS	nfet_01v8
+ L=1.5e-07	W=4.2e-07
MX30/M0	MX30/M0#d	MX30/M0#g	MX30/M0#s	VSS	nfet_01v8
+ L=1.5e-07	W=4.2e-07
MX25/M0	MX25/M0#d	MX25/M0#g	MX25/M0#s	VSS	nfet_01v8
+ L=1.5e-07	W=4.2e-07
MX24/M0	MX24/M0#d	MX24/M0#g	MX24/M0#s	VSS	nfet_01v8
+ L=1.5e-07	W=4.2e-07
MX21/M0	MX21/M0#d	MX21/M0#g	MX21/M0#s	VSS	nfet_01v8
+ L=1.5e-07	W=4.2e-07
MX20/M0	MX20/M0#d	MX20/M0#g	MX20/M0#s	VSS	nfet_01v8
+ L=1.5e-07	W=4.2e-07
MX29/M0	MX29/M0#d	MX29/M0#g	MX29/M0#s	VDD	pfet_01v8_hvt
+ L=1.5e-07	W=5.4e-07
MX23/M0	MX23/M0#d	MX23/M0#g	MX23/M0#s	VDD	pfet_01v8_hvt
+ L=1.5e-07	W=5.4e-07
MX22/M0	MX22/M0#d	MX22/M0#g	MX22/M0#s	VDD	pfet_01v8_hvt
+ L=1.5e-07	W=6.2e-07
MX19/M0	MX19/M0#d	MX19/M0#g	MX19/M0#s	VDD	pfet_01v8_hvt
+ L=1.5e-07	W=5.4e-07
MM0	MM0#d	MM0#g	MM0#s	VDD	pfet_01v8_hvt	L=1.5e-07
+ W=5.4e-07
MM1	MM1#d	MM1#g	MM1#s	VDD	pfet_01v8_hvt	L=1.5e-07
+ W=5.4e-07
.ENDS
