*
*|DSPF 1.5
*
*|DATE "Fri Feb 28 12:03:43 2025"
*|VENDOR "Cadence Design Systems"
*|PROGRAM "Cadence Quantus Extraction"
*|VERSION "22.1.0-p089 Linux 64 bit - (Thu Jan 19 11:47:08 PST 2023)"
*|DESIGN "TLATSRX1_LP"
*|DIVIDER /
*|DELIMITER #
*|DeviceFingerDelim "@"
*|BUSBIT []
*|GLOBAL_TEMPERATURE 25
*|OPERATING_TEMPERATURE 25
** QRC_TECH_DIR /vols/wfo_devel/projects/reference_SKY130/tech/sky130_release_0.0.4/quantus/extraction/typical 
** HIERARCHICAL_SPLIT_PINS_DELIMITER '%'
** caps2d version: 10
*
.SUBCKT  TLATSRX1_LP D G Q QN RN SN VDD VSS
*
*Net Section
*
*|GROUND_NET VSS
*
*|NET 3 2.26213e-15
*|I (MX54/M0#g MX54/M0 g X 0 6.2400 0.8000)
*|I (MX53/M0#d MX53/M0 d X 0 5.3655 0.8000)
*|I (MX50/M0#g MX50/M0 g X 0 2.6250 0.8000)
*|I (MX37/M0#g MX37/M0 g X 0 7.8500 0.8000)
*|I (MX46/M0#s MX46/M0 s X 0 5.2145 3.2800)
*|I (MX45/M0#d MX45/M0 d X 0 4.9355 3.2800)
*|I (MX43/M0#g MX43/M0 g X 0 2.6250 3.2800)
*|I (MX39/M0#g MX39/M0 g X 0 6.2400 3.2400)
*|I (MX33/M0#g MX33/M0 g X 0 7.8500 3.2400)
*|S (3 2.6250 3.2800)
*|S (3#22 2.6350 1.6300)
*|S (3#23 2.6350 1.4650)
*|S (3#24 6.2400 1.7645)
*|S (3#25 6.1500 1.6300)
*|S (3#26 6.2400 1.4950)
*|S (3#27 7.9400 1.6300)
*|S (3#28 7.8500 1.4950)
*|S (3#30 5.0750 3.2800)
*|S (3#31 5.0750 3.0900)
*|S (3#32 7.9400 1.6300)
*|S (3#33 6.1500 1.6300)
*|S (3#34 6.0850 1.6300)
*|S (3#35 5.5050 1.6300)
*|S (3#36 2.6350 1.6300)
*|S (3#38 5.5050 0.8000)
*|S (3#39 6.0850 1.6300)
*|S (3#40 6.0850 1.7745)
*|S (3#41 5.1895 3.0900)
*|S (3#42 5.0750 3.0900)
CJ1 MX39/M0#g VSS 1.09774e-18
CJ2 MX46/M0#s VSS 4.24082e-18
CJ3 MX37/M0#g VSS 1.83532e-17
CJ4 MX50/M0#g VSS 3.56846e-17
CJ5 MX53/M0#d VSS 1.55293e-17
CJ6 MX54/M0#g VSS 2.63905e-17
CJ7 3#41 VSS 4.2582e-18
CJ8 3#39 VSS 1.41532e-17
CJ9 3#36 VSS 4.4131e-17
CJ10 3#35 VSS 5.51472e-17
CJ11 3#32 VSS 3.26407e-17
CJ12 3#31 VSS 9.12775e-19
CJ13 3#34 VSS 4.3659e-17
CJ14 3 VSS 5.69959e-18
CJ15 MX53/M0#d 52 1.8904e-17
CJ16 3#35 52 5.40406e-18
CJ17 3 35 1.76422e-18
CJ18 3 MX43/M0#d 1.23294e-17
CJ19 3#41 21#13 5.03951e-18
CJ20 3#39 21#13 4.61198e-18
CJ21 3#35 21#21 3.21515e-18
CJ22 3#32 MX35/M0#g 3.201e-18
CJ23 MX39/M0#g 21#18 3.19695e-18
CJ24 MX53/M0#d 21#21 2.93107e-18
CJ25 3#35 MX54/M0#d 2.69967e-18
CJ26 MX53/M0#d MX54/M0#d 2.64674e-18
CJ27 MX39/M0#g 21#19 2.35696e-18
CJ28 3#39 21#20 1.02968e-16
CJ29 3#32 21#17 4.28937e-17
CJ30 3#34 21#21 1.31647e-17
CJ31 3#41 21#19 5.86859e-17
CJ32 3#39 21#18 5.89861e-18
CJ33 3#39 21#21 2.15803e-17
CJ34 3#34 21#18 5.48267e-17
CJ35 3#34 21#17 1.3516e-17
CJ36 MX54/M0#g MX54/M0#d 7.77257e-18
CJ37 3#39 21#19 6.10814e-17
CJ38 MX39/M0#g 21#13 1.08976e-17
CJ39 3#34 21#20 1.41429e-17
CJ40 3#34 MX54/M0#d 2.11231e-17
CJ41 3#36 11#21 7.91506e-17
CJ42 3#36 11#23 6.24218e-17
CJ43 3#35 11#21 3.11959e-17
CJ44 3#35 9#14 3.20473e-18
CJ45 3#31 MX44/M0#d 2.4021e-18
CJ46 3#39 9#14 2.36969e-18
CJ47 3#36 9#19 5.28624e-17
CJ48 3#35 9#23 2.33333e-17
CJ49 3#35 9#18 3.96081e-17
CJ50 MX50/M0#g 9#19 9.27e-18
CJ51 3#36 9#18 8.4759e-17
CJ52 MX54/M0#g MX54/M0#s 9.39334e-18
CJ53 3#35 MX52/M0#s 8.72224e-18
CJ54 MX37/M0#g MX37/M0#s 8.41205e-18
CJ55 3#34 MX54/M0#s 7.43208e-18
CJ56 MX53/M0#d VSS#5 6.1405e-18
CJ57 MX50/M0#g VSS#9 4.87612e-18
CJ58 MX37/M0#g VSS#22 4.8201e-18
CJ59 3#32 VSS#22 4.59129e-18
CJ60 3#39 MX54/M0#s 4.49707e-18
CJ61 3#32 MX37/M0#s 2.76726e-17
CJ62 MX53/M0#d MX54/M0#s 2.06868e-17
RgJ139 3 3#22 506.635559 $L=1.65 $W=0.15
RgJ140 3#22 3#23 34.134449 $L=0.1645 $W=0.27
RgJ141 3#23 MX50/M0#g 213.731293 $L=0.665 $W=0.15
RgJ142 MX39/M0#g 3#24 474.003204 $L=1.475 $W=0.15
RgJ143 3#24 3#25 31.545456 $L=0.1345 $W=0.33
RgJ144 3#25 3#26 31.545456 $L=0.1345 $W=0.33
RgJ145 3#26 MX54/M0#g 223.363174 $L=0.695 $W=0.15
RgJ146 MX33/M0#g 3#27 493.684845 $L=1.61 $W=0.15
RgJ147 3#27 3#28 31.545456 $L=0.1345 $W=0.33
RgJ148 3#28 MX37/M0#g 223.363174 $L=0.695 $W=0.15
RfJ149 3#30 3#31 14.305882 $L=0.19 $W=0.17
RfJ150 3#32 3#33 134.776459 $L=1.79 $W=0.17
RfJ151 3#33 3#34 4.894118 $L=0.065 $W=0.17
RfJ152 3#34 3#35 43.180637 $L=0.58 $W=0.17
RfJ153 3#35 3#36 215.604172 $L=2.87 $W=0.17
RfJ154 3#35 3#38 57.257729 $L=0.83 $W=0.17
ReJ155 3#39 3#40 0.078668 $L=0.1445 $W=0.23
ReJ156 3#40 3#41 1.958478 $L=2.255 $W=0.14
ReJ157 3#41 3#42 0.062765 $L=0.1145 $W=0.29
RhJ158 MX53/M0#d 3#38 15.000000 $A=0.0289
Rh_2_J159 MX46/M0#s 3#30 15.000000 $A=0.0289
RjJ160 3#34 3#39 152.000000 $A=0.0289
RjJ161 3#31 3#42 152.000000 $A=0.0289
RiJ162 3#27 3#32 15.000000 $A=0.0289
RiJ163 3#25 3#33 15.000000 $A=0.0289
RiJ164 3#22 3#36 15.000000 $A=0.0289
RmwJ165 MX45/M0#d MX46/M0#s 0.001000 $W=1000000
RmwJ166 MX43/M0#g 3 0.001000 $W=1000000
*
*|NET VSS 3.00527e-15
*|P (VSS X 0 0.7000 -0.0050)
*|I (MX55/M0#d MX55/M0 d X 0 3.1305 0.8000)
*|I (MX54/M0#s MX54/M0 s X 0 6.1645 0.8000)
*|I (MX52/M0#s MX52/M0 s X 0 4.7845 0.8000)
*|I (MX51/M0#s MX51/M0 s X 0 4.5055 0.8000)
*|I (MX49/M0#s MX49/M0 s X 0 1.2595 0.8000)
*|I (MX48/M0#s MX48/M0 s X 0 0.9805 0.8000)
*|I (MX37/M0#s MX37/M0 s X 0 7.7745 0.8000)
*|I (MX35/M0#s MX35/M0 s X 0 7.4955 0.8000)
*|S (VSS#1 7.8200 0.0000)
*|S (VSS#2 7.8200 0.0000)
*|S (VSS#4 7.6350 0.0000)
*|S (VSS#5 6.0250 0.0000)
*|S (VSS#6 4.6450 0.0000)
*|S (VSS#7 3.6800 0.0000)
*|S (VSS#9 3.2700 0.0000)
*|S (VSS#10 1.1200 0.0000)
*|S (VSS#11 0.0000 0.0000)
*|S (VSS#13 7.6350 0.8000)
*|S (VSS#15 6.0250 0.8000)
*|S (VSS#17 4.6450 0.8000)
*|S (VSS#19 3.2700 0.8000)
*|S (VSS#21 1.1200 0.8000)
*|S (VSS#22 7.8200 0.0000)
*|S (VSS#23 3.6800 0.0000)
RfH92 VSS#1 VSS#4 9.196811 $L=0.185 $W=0.25
RfH93 VSS#4 VSS#5 81.881622 $L=1.61 $W=0.25
RfH94 VSS#5 VSS#6 70.105621 $L=1.38 $W=0.25
RfH95 VSS#6 VSS#7 49.132812 $L=0.965 $W=0.25
RfH96 VSS#7 VSS#9 20.716810 $L=0.41 $W=0.25
RfH97 VSS#9 VSS#10 109.529625 $L=2.15 $W=0.25
RfH98 VSS#10 VSS#11 57.068810 $L=1.12 $W=0.25
RfH99 VSS#4 VSS#13 53.627445 $L=0.8 $W=0.17
RfH100 VSS#5 VSS#15 53.627445 $L=0.8 $W=0.17
RfH101 VSS#6 VSS#17 53.627445 $L=0.8 $W=0.17
RfH102 VSS#9 VSS#19 53.627445 $L=0.8 $W=0.17
RfH103 VSS#10 VSS#21 53.627445 $L=0.8 $W=0.17
ReH104 VSS#22 VSS#23 1.293750 $L=4.14 $W=0.4
ReH105 VSS#23 VSS 0.931250 $L=2.98 $W=0.4
RhH106 MX37/M0#s VSS#13 15.000000 $A=0.0289
RhH107 MX54/M0#s VSS#15 15.000000 $A=0.0289
RhH108 MX52/M0#s VSS#17 15.000000 $A=0.0289
RhH109 MX55/M0#d VSS#19 15.000000 $A=0.0289
RhH110 MX49/M0#s VSS#21 15.000000 $A=0.0289
Rh_3_H111 VSS#2 VSS#1 5.000000 $A=0.0867
Rh_3_H112 VSS#2 VSS#7 1.000000 $A=0.4335
RjH113 VSS#1 VSS#22 50.666668 $A=0.0867
RjH114 VSS#7 VSS#23 10.133333 $A=0.4335
RmwH115 MX51/M0#s MX52/M0#s 0.001000 $W=1000000
RmwH116 MX48/M0#s MX49/M0#s 0.001000 $W=1000000
RmwH117 MX35/M0#s MX37/M0#s 0.001000 $W=1000000
*
*|NET D 3.87689e-16
*|P (D X 0 1.4150 2.6100)
*|I (MX49/M0#g MX49/M0 g X 0 1.3350 0.8000)
*|I (MX42/M0#g MX42/M0 g X 0 1.3350 3.2800)
*|S (D#8 1.3350 2.6500)
*|S (D#9 1.3350 2.4850)
*|S (D#10 1.3350 2.6500)
*|S (D#11 1.2800 2.6500)
*|S (D#12 1.2800 2.6500)
CA1 MX42/M0#g VSS 2.20932e-18
CA2 MX49/M0#g VSS 2.463e-17
CA3 D#12 VSS 1.23059e-17
CA4 D#11 VSS 1.35161e-18
CA5 MX42/M0#g 30 6.79301e-18
CA6 D#11 30 1.06335e-17
CA7 D#12 30 1.71467e-17
CA8 D#12 MX43/M0#d 7.4944e-18
CA9 D#11 MX43/M0#d 6.02251e-18
CA10 MX42/M0#g MX41/M0#d 1.63687e-18
CA11 MX49/M0#g 11#23 1.63367e-18
CA12 D#11 MX41/M0#d 1.2263e-17
CA13 D#11 11#23 1.34681e-17
CA14 D#12 MX41/M0#d 8.84713e-18
CA15 D#12 11#24 8.90906e-18
CA16 D#12 11#23 8.83579e-18
CA17 D#11 11#24 1.00386e-17
CA18 MX42/M0#g MX38/M0#d 9.68813e-19
CA19 MX49/M0#g MX56/M0#d 9.07809e-19
CA20 D#11 1#22 6.98185e-19
CA21 D#12 1#13 3.91966e-18
CA22 D#12 1#24 2.25952e-17
CA23 MX49/M0#g VSS#10 3.64084e-18
CA24 MX49/M0#g MX49/M0#s 7.17104e-18
CA25 D#12 VDD 1.75512e-17
CA26 D#12 VDD#29 1.96122e-17
CA27 D#11 MX42/M0#s 1.93261e-17
CA28 D#12 MX42/M0#s 1.62322e-17
CA29 MX42/M0#g VDD#11 3.77064e-18
CA30 D#11 VDD 1.88833e-17
CA31 D#12 VDD#11 2.97639e-18
CA32 MX42/M0#g VDD 1.43761e-17
CA33 MX42/M0#g MX42/M0#s 8.68034e-18
CA34 D#11 VDD#29 4.35311e-18
CA35 MX42/M0#g VDD#29 3.20301e-18
CA36 D#12 RN#20 1.51372e-18
CA37 D#11 RN#27 2.78682e-18
CA38 D#12 RN#27 1.23894e-17
CA39 MX49/M0#g RN#20 6.0855e-18
CA40 D#12 G#11 1.995e-18
CA41 D#11 G#12 4.39755e-18
CA42 D#12 G#12 3.54353e-17
RgA1 MX42/M0#g D#8 183.599075 $L=0.63 $W=0.15
RgA2 D#8 D#9 34.134449 $L=0.1645 $W=0.27
RgA3 D#9 MX49/M0#g 541.491272 $L=1.685 $W=0.15
RfA4 D#10 D#11 4.141177 $L=0.055 $W=0.17
ReA5 D#12 D 0.018443 $L=0.135 $W=0.915
RjA6 D#11 D#12 152.000000 $A=0.0289
RiA7 D#8 D#10 15.000000 $A=0.0289
*
*|NET Q 7.18628e-16
*|P (Q X 0 7.3720 1.9990)
*|I (MX35/M0#d MX35/M0 d X 0 7.3445 0.8000)
*|I (MX34/M0#d MX34/M0 d X 0 7.3445 3.2400)
*|S (Q#2 7.2050 3.2400)
*|S (Q#3 7.2050 2.9450)
*|S (Q#4 7.2050 1.0050)
*|S (Q#6 7.2050 0.8000)
*|S (Q#7 7.2050 2.9450)
*|S (Q#8 7.2900 2.6200)
*|S (Q#9 7.2900 1.3295)
*|S (Q#10 7.2050 1.0050)
CC1 MX35/M0#d VSS 6.53815e-18
CC2 Q#10 VSS 1.54722e-17
CC3 Q#7 VSS 4.24332e-18
CC4 Q VSS 3.60992e-18
CC5 Q#7 21#17 2.78228e-18
CC6 Q#10 21#20 2.5317e-18
CC7 Q#7 21 2.39235e-18
CC8 Q#7 21#20 2.37231e-18
CC9 Q#3 21 1.0436e-17
CC10 Q#7 21#13 7.24471e-18
CC11 Q#3 21#17 8.19819e-18
CC12 Q 21#17 3.54821e-17
CC13 MX35/M0#d MX54/M0#d 1.2011e-17
CC14 MX35/M0#d 21#21 8.21337e-18
CC15 Q 21#20 1.9961e-17
CC16 Q#3 21#13 1.65772e-17
CC17 Q#10 MX54/M0#d 6.18137e-18
CC18 Q#10 21#21 4.14473e-17
CC19 MX35/M0#d MX35/M0#g 7.4367e-18
CC20 Q#7 21#19 4.69734e-17
CC21 Q#3 21#19 7.07167e-18
CC22 Q#3 MX33/M0#g 2.4294e-18
CC23 Q#3 MX39/M0#g 1.76213e-18
CC24 MX35/M0#d MX37/M0#g 1.73029e-18
CC25 MX35/M0#d MX54/M0#g 1.26888e-18
CC26 Q 3#32 1.13735e-17
CC27 Q#10 3#32 3.3888e-17
CC28 MX35/M0#d 3#32 2.22822e-17
CC29 Q#10 VSS#22 2.61192e-17
CC30 MX35/M0#d VSS#22 5.58537e-18
CC31 MX35/M0#d MX37/M0#s 3.40252e-17
CC32 Q#10 MX37/M0#s 1.66508e-17
CC33 Q#10 VSS#4 8.27891e-18
CC34 MX35/M0#d VSS#4 6.0875e-18
CC35 Q#3 VDD 1.01662e-17
CC36 Q#3 VDD#28 5.05631e-18
CC37 Q#7 VDD#4 7.54805e-18
CC38 Q#7 VDD#28 2.56739e-17
CC39 Q#7 MX34/M0#s 1.4356e-17
CC40 Q#7 VDD 1.32998e-17
CC41 Q VDD 5.09815e-18
CC42 Q#3 VDD#4 6.1405e-18
CC43 Q#3 MX34/M0#s 3.18605e-17
CC44 Q#7 VDD#29 3.88851e-18
CC45 Q#7 QN#7 5.77443e-17
CC46 Q QN 2.32552e-17
CC47 MX35/M0#d QN#10 3.16111e-18
CC48 Q#3 QN#7 4.99177e-18
CC49 Q#7 QN#3 8.99996e-18
CC50 Q#3 QN#3 4.97346e-18
CC51 Q#10 QN#10 4.73995e-17
CC52 Q#10 MX37/M0#d 6.35758e-18
RfC15 Q#2 Q#3 22.211765 $L=0.295 $W=0.17
RfC16 Q#4 Q#6 15.435293 $L=0.205 $W=0.17
ReC17 Q#7 Q#8 0.101484 $L=0.3245 $W=0.4
ReC18 Q#8 Q 0.298636 $L=0.621 $W=0.26
ReC19 Q Q#9 0.321713 $L=0.669 $W=0.26
ReC20 Q#9 Q#10 0.116775 $L=0.3245 $W=0.4
RhC21 MX35/M0#d Q#6 15.000000 $A=0.0289
Rh_2_C22 MX34/M0#d Q#2 15.000000 $A=0.0289
RjC23 Q#3 Q#7 76.000000 $A=0.0578
RjC24 Q#4 Q#10 76.000000 $A=0.0578
*
*|NET 42 9.40009e-17
*|I (MX48/M0#d MX48/M0 d X 0 0.8295 0.8000)
*|I (MX47/M0#s MX47/M0 s X 0 0.5505 0.8000)
*|S (42 0.6900 0.8000)
CO1 42 VSS 1.77879e-17
CO2 42 MX49/M0#s 2.17432e-17
CO3 42 VSS#10 6.01853e-18
RmwO229 MX48/M0#d 42 0.001000 $W=1000000
RmwO230 MX47/M0#s 42 0.001000 $W=1000000
*
*|NET 46 1.09952e-16
*|I (MX56/M0#s MX56/M0 s X 0 1.6895 0.8000)
*|I (MX49/M0#d MX49/M0 d X 0 1.4105 0.8000)
*|S (46 1.5500 0.8000)
CO4 46 VSS 1.83877e-17
CO5 46 VSS#10 4.79145e-18
CO6 46 MX49/M0#s 2.34686e-17
RmwO231 MX56/M0#s 46 0.001000 $W=1000000
RmwO232 MX49/M0#d 46 0.001000 $W=1000000
*
*|NET 48 1.11678e-16
*|I (MX55/M0#s MX55/M0 s X 0 2.9795 0.8000)
*|I (MX50/M0#s MX50/M0 s X 0 2.7005 0.8000)
*|S (48 2.8400 0.8000)
CO7 48 VSS 1.71185e-17
CO8 48 VSS#9 6.04703e-18
CO9 48 MX55/M0#d 1.9764e-17
RmwO233 MX55/M0#s 48 0.001000 $W=1000000
RmwO234 MX50/M0#s 48 0.001000 $W=1000000
*
*|NET 52 9.17023e-17
*|I (MX53/M0#s MX53/M0 s X 0 5.2145 0.8000)
*|I (MX52/M0#d MX52/M0 d X 0 4.9355 0.8000)
*|S (52 5.0750 0.8000)
CO10 52 VSS 9.20896e-18
CO11 52 VSS#6 5.95875e-18
CO12 52 MX52/M0#s 2.19718e-17
RmwO235 MX53/M0#s 52 0.001000 $W=1000000
RmwO236 MX52/M0#d 52 0.001000 $W=1000000
*
*|NET G 3.65478e-16
*|P (G X 0 0.4620 2.4140)
*|I (MX47/M0#g MX47/M0 g X 0 0.4750 0.8000)
*|I (MX40/M0#g MX40/M0 g X 0 0.4750 3.2800)
*|S (G#8 0.4750 2.4550)
*|S (G#9 0.3125 2.4550)
*|S (G#10 0.3125 2.4550)
*|S (G#11 0.2650 2.4550)
*|S (G#12 0.2650 2.4550)
CB1 MX47/M0#g VSS 2.43497e-17
CB2 G#12 VSS 1.41234e-17
CB3 G#11 VSS 1.32261e-18
CB4 MX40/M0#g 11#24 1.62664e-18
CB5 G#12 MX41/M0#d 2.43057e-17
CB6 G#12 11#24 2.58957e-17
CB7 MX47/M0#g 11#24 4.14222e-18
CB8 MX40/M0#g MX41/M0#d 8.84224e-18
CB9 MX47/M0#g MX47/M0#d 8.2007e-18
CB10 G#11 11#24 3.33005e-17
CB11 MX47/M0#g VSS#10 2.03055e-18
CB12 MX47/M0#g VSS#11 2.24126e-18
CB13 G#12 VSS#11 2.59803e-18
CB14 MX47/M0#g MX49/M0#s 1.93296e-18
CB15 G#12 MX42/M0#s 4.664e-18
CB16 G#12 VDD 4.87859e-17
CB17 G#11 VDD 1.82984e-17
CB18 MX40/M0#g VDD 1.57229e-17
CB19 MX40/M0#g MX42/M0#s 2.3399e-18
CB20 MX40/M0#g VDD#12 4.31255e-18
CB21 MX40/M0#g MX40/M0#s 1.13714e-17
CB22 G#12 VDD#29 1.85003e-17
CB23 MX40/M0#g VDD#29 3.20301e-18
CB24 G#11 MX40/M0#s 9.61111e-18
CB25 G#12 MX40/M0#s 2.96532e-17
CB26 G#12 VDD#12 2.27467e-18
RgB8 MX40/M0#g G#8 260.115753 $L=0.825 $W=0.15
RgB9 G#8 G#9 12.853333 $L=0.1625 $W=0.33
RgB10 G#8 MX47/M0#g 526.822449 $L=1.655 $W=0.15
RfB11 G#10 G#11 1.842424 $L=0.0475 $W=0.33
ReB12 G#12 G 0.107065 $L=0.197 $W=0.47
RjB13 G#11 G#12 152.000000 $A=0.0289
RiB14 G#9 G#10 15.000000 $A=0.01275
*
*|NET VDD 2.47944e-15
*|P (VDD X 0 3.4400 4.1500)
*|I (MX57/M0#d MX57/M0 d X 0 2.9795 3.2800)
*|I (MX46/M0#d MX46/M0 d X 0 5.3655 3.2800)
*|I (MX45/M0#s MX45/M0 s X 0 4.7845 3.2800)
*|I (MX44/M0#s MX44/M0 s X 0 4.5055 3.2800)
*|I (MX43/M0#s MX43/M0 s X 0 2.7005 3.2800)
*|I (MX42/M0#s MX42/M0 s X 0 1.2595 3.2800)
*|I (MX41/M0#s MX41/M0 s X 0 0.9805 3.2800)
*|I (MX40/M0#s MX40/M0 s X 0 0.3995 3.2800)
*|I (MX39/M0#s MX39/M0 s X 0 6.1645 3.2400)
*|I (MX34/M0#s MX34/M0 s X 0 7.4955 3.2400)
*|I (MX33/M0#s MX33/M0 s X 0 7.7745 3.2400)
*|S (VDD#1 7.8200 4.1400)
*|S (VDD#2 7.8200 4.1400)
*|S (VDD#4 7.6350 4.1400)
*|S (VDD#5 6.0250 4.1400)
*|S (VDD#6 5.5050 4.1400)
*|S (VDD#7 4.6450 4.1400)
*|S (VDD#8 3.6800 4.1400)
*|S (VDD#10 2.8400 4.1400)
*|S (VDD#11 1.1200 4.1400)
*|S (VDD#12 0.1725 4.1400)
*|S (VDD#13 0.2600 4.0150)
*|S (VDD#15 0.2600 3.2800)
*|S (VDD#17 7.6350 3.2400)
*|S (VDD#19 6.0250 3.2400)
*|S (VDD#21 5.5050 3.2800)
*|S (VDD#23 4.6450 3.2800)
*|S (VDD#25 2.8400 3.2800)
*|S (VDD#27 1.1200 3.2800)
*|S (VDD#28 7.8200 4.1400)
*|S (VDD#29 3.6800 4.1400)
CG1 MX34/M0#s VSS 1.1335e-18
CG2 MX39/M0#s VSS 1.2839e-18
CG3 MX42/M0#s VSS 3.66074e-18
CG4 MX45/M0#s VSS 2.72111e-18
CG5 MX57/M0#d VSS 3.32128e-18
CG6 VDD#29 VSS 1.24691e-17
CG7 VDD#28 VSS 4.96964e-18
CG8 VDD#12 VSS 1.714e-18
CG9 VDD#11 VSS 1.35161e-18
CG10 VDD#10 VSS 1.93563e-18
CG11 VDD#7 VSS 2.36211e-18
CG12 VDD#6 VSS 3.89247e-18
CG13 VDD#5 VSS 1.59227e-18
CG14 VDD#4 VSS 5.26318e-19
CG15 VDD#2 VSS 8.01995e-19
CG16 MX57/M0#d MX43/M0#d 4.27614e-17
CG17 MX57/M0#d 35 4.70938e-17
CG18 VDD#29 30 7.03154e-18
CG19 MX42/M0#s 30 2.58178e-17
CG20 VDD#10 35 2.09628e-18
CG21 VDD#29 35 2.04823e-18
CG22 VDD#2 35 4.40799e-18
CG23 VDD#10 MX43/M0#d 6.52822e-18
CG24 VDD#29 MX43/M0#d 2.05428e-18
CG25 VDD MX43/M0#d 1.71795e-17
CG26 VDD 35 1.8654e-17
CG27 VDD#11 30 6.04287e-18
CG28 VDD 21#20 4.84538e-18
CG29 VDD#29 21#18 4.26925e-18
CG30 VDD#29 21#13 5.91136e-18
CG31 MX39/M0#s 21#19 7.25837e-18
CG32 VDD 21 1.62811e-17
CG33 MX34/M0#s 21 1.0798e-17
CG34 VDD 21#19 1.00748e-17
CG35 VDD#5 21#19 5.47995e-18
CG36 MX39/M0#s 21#13 3.21487e-17
CG37 VDD 21#13 1.42292e-17
CG38 VDD#29 21#19 2.11473e-17
CG39 VDD#5 21#13 6.1405e-18
CG40 VDD#4 21 5.81423e-18
CG41 VDD#11 11 5.77573e-18
CG42 VDD#29 11 5.21861e-18
CG43 VDD#7 MX44/M0#g 2.84936e-18
CG44 VDD#29 11#24 2.50807e-18
CG45 VDD#12 MX41/M0#d 2.44428e-18
CG46 VDD#11 MX41/M0#d 2.42043e-18
CG47 VDD#29 MX41/M0#d 8.45256e-18
CG48 MX42/M0#s MX41/M0#d 3.60153e-17
CG49 MX40/M0#s MX41/M0#d 3.18449e-17
CG50 MX45/M0#s MX44/M0#g 8.62441e-18
CG51 VDD MX41/M0#d 9.73211e-18
CG52 VDD 11#24 1.91994e-17
CG53 VDD 11 1.35678e-17
CG54 VDD MX44/M0#g 1.35431e-17
CG55 VDD MX44/M0#d 7.28796e-18
CG56 VDD#10 9 5.77573e-18
CG57 VDD#7 MX44/M0#d 3.21016e-18
CG58 VDD#2 MX44/M0#d 2.93466e-18
CG59 VDD#29 MX44/M0#d 1.86705e-18
CG60 VDD 9#15 3.14902e-17
CG61 VDD 9#14 4.93922e-17
CG62 VDD 9 1.47315e-17
CG63 VDD 9#21 2.29768e-17
CG64 MX45/M0#s MX44/M0#d 3.21262e-17
CG65 MX57/M0#d 3 8.66249e-18
CG66 MX46/M0#d 3#31 8.18978e-18
CG67 VDD 3#41 6.45487e-18
CG68 VDD#29 MX46/M0#s 6.00165e-18
CG69 MX34/M0#s 3#32 5.63909e-18
CG70 VDD#28 MX33/M0#g 5.48428e-18
CG71 VDD#5 MX39/M0#g 4.34129e-18
CG72 VDD#4 MX33/M0#g 4.34129e-18
CG73 VDD 3#31 4.33967e-18
CG74 VDD#29 MX39/M0#g 4.31244e-18
CG75 MX45/M0#s 3#35 3.81642e-18
CG76 VDD#6 3#41 3.23854e-18
CG77 MX46/M0#d MX39/M0#g 3.03068e-18
CG78 MX45/M0#s 3#41 2.84898e-18
CG79 MX39/M0#s 3#34 2.73572e-18
CG80 VDD#5 3#41 2.67394e-18
CG81 VDD#10 3 2.48383e-18
CG82 VDD#7 MX46/M0#s 2.41228e-18
CG83 MX45/M0#s 3#31 1.04986e-17
CG84 MX46/M0#d 3#41 2.48522e-17
CG85 MX45/M0#s MX46/M0#s 1.63875e-17
CG86 VDD 3#39 1.2411e-17
CG87 MX46/M0#d MX46/M0#s 1.75244e-17
CG88 MX39/M0#s MX39/M0#g 1.28578e-17
CG89 MX39/M0#s 3#41 3.39795e-17
CG90 VDD MX33/M0#g 1.21348e-17
CG91 VDD 3 1.36001e-17
CG92 VDD MX39/M0#g 1.19568e-17
CG93 MX34/M0#s MX33/M0#g 1.13636e-17
CG94 VDD#29 3#41 3.96485e-17
CG95 VDD 1 9.86522e-18
CG96 MX46/M0#d 1 8.91567e-18
CG97 VDD#2 1#24 8.70301e-18
CG98 MX46/M0#d 1#17 8.19187e-18
CG99 VDD#11 1#24 7.63197e-18
CG100 VDD#2 1#22 6.7706e-18
CG101 MX42/M0#s 1#24 6.6977e-18
CG102 VDD 1#25 5.63748e-18
CG103 VDD 1#13 5.02168e-18
CG104 MX46/M0#d 1#22 4.8135e-18
CG105 VDD#6 1 3.81877e-18
CG106 VDD#11 MX38/M0#d 3.62348e-18
CG107 VDD#10 MX38/M0#d 3.60892e-18
CG108 MX39/M0#s 1#22 3.1724e-18
CG109 VDD#6 1#22 2.97495e-18
CG110 MX39/M0#s 1 2.85765e-18
CG111 MX46/M0#d 1#25 2.60988e-18
CG112 MX40/M0#s 1#24 2.29408e-18
CG113 VDD#29 1 2.10197e-18
CG114 VDD#4 1#22 1.95135e-18
CG115 MX57/M0#d 1#22 1.86102e-18
CG116 VDD 1#17 1.67338e-17
CG117 VDD#29 1#24 2.6269e-16
CG118 VDD#29 1#22 1.61065e-16
CG119 MX57/M0#d 1#24 3.28812e-17
CG120 VDD 1#24 2.9792e-17
CG121 VDD 1#22 5.67691e-17
CG122 MX45/M0#s 1#22 4.25022e-17
CG123 VDD#10 1#24 2.82687e-17
CG124 VDD#7 1#22 2.09797e-17
RfG59 VDD#1 VDD#4 9.196811 $L=0.185 $W=0.25
RfG60 VDD#4 VDD#5 81.881622 $L=1.61 $W=0.25
RfG61 VDD#5 VDD#6 26.073622 $L=0.52 $W=0.25
RfG62 VDD#6 VDD#7 43.481621 $L=0.86 $W=0.25
RfG63 VDD#7 VDD#8 49.132812 $L=0.965 $W=0.25
RfG64 VDD#8 VDD#10 42.732811 $L=0.84 $W=0.25
RfG65 VDD#10 VDD#11 87.513618 $L=1.72 $W=0.25
RfG66 VDD#11 VDD#12 43.100529 $L=0.9475 $W=0.25
RfG67 VDD#12 VDD#13 3.709770 $L=0.1245 $W=0.345
RfG68 VDD#13 VDD#15 55.350452 $L=0.735 $W=0.17
RfG69 VDD#4 VDD#17 61.156857 $L=0.9 $W=0.17
RfG70 VDD#5 VDD#19 61.156857 $L=0.9 $W=0.17
RfG71 VDD#6 VDD#21 58.145092 $L=0.86 $W=0.17
RfG72 VDD#7 VDD#23 58.145092 $L=0.86 $W=0.17
RfG73 VDD#10 VDD#25 58.145092 $L=0.86 $W=0.17
RfG74 VDD#11 VDD#27 58.145092 $L=0.86 $W=0.17
ReG75 VDD#28 VDD#29 1.293750 $L=4.14 $W=0.4
ReG76 VDD#29 VDD 0.075000 $L=0.24 $W=0.4
Rh_1_G77 VDD#2 VDD#1 5.000000 $A=0.0867
Rh_1_G78 VDD#2 VDD#8 1.000000 $A=0.4335
Rh_2_G79 MX40/M0#s VDD#15 15.000000 $A=0.0289
Rh_2_G80 MX34/M0#s VDD#17 15.000000 $A=0.0289
Rh_2_G81 MX39/M0#s VDD#19 15.000000 $A=0.0289
Rh_2_G82 MX46/M0#d VDD#21 15.000000 $A=0.0289
Rh_2_G83 MX45/M0#s VDD#23 15.000000 $A=0.0289
Rh_2_G84 MX57/M0#d VDD#25 15.000000 $A=0.0289
Rh_2_G85 MX42/M0#s VDD#27 15.000000 $A=0.0289
RjG86 VDD#1 VDD#28 50.666668 $A=0.0867
RjG87 VDD#8 VDD#29 10.133333 $A=0.4335
RmwG88 MX44/M0#s MX45/M0#s 0.001000 $W=1000000
RmwG89 MX43/M0#s MX57/M0#d 0.001000 $W=1000000
RmwG90 MX41/M0#s MX42/M0#s 0.001000 $W=1000000
RmwG91 MX33/M0#s MX34/M0#s 0.001000 $W=1000000
*
*|NET 28 1.1737e-16
*|I (MX50/M0#d MX50/M0 d X 0 2.5495 0.8000)
*|I (MX36/M0#s MX36/M0 s X 0 2.2705 0.8000)
*|S (28 2.4100 0.8000)
CN1 28 VSS 1.84518e-17
CN2 28 48 1.83395e-17
RmwN220 MX50/M0#d 28 0.001000 $W=1000000
RmwN221 MX36/M0#s 28 0.001000 $W=1000000
*
*|NET 30 1.15547e-16
*|I (MX42/M0#d MX42/M0 d X 0 1.4105 3.2800)
*|I (MX38/M0#s MX38/M0 s X 0 1.6895 3.2800)
*|S (30 1.5500 3.2800)
CN3 30 VSS 9.60834e-18
RmwN222 MX42/M0#d 30 0.001000 $W=1000000
RmwN223 MX38/M0#s 30 0.001000 $W=1000000
*
*|NET 35 3.97542e-16
*|I (MX57/M0#s MX57/M0 s X 0 3.1305 3.2800)
*|I (MX43/M0#d MX43/M0 d X 0 2.5495 3.2800)
*|I (MM0#d MM0 d X 0 2.2705 3.2800)
*|S (35 3.2700 3.2800)
*|S (35#2 3.2700 3.2800)
*|S (35#4 2.4100 3.2800)
CN4 MX43/M0#d VSS 3.63121e-18
CN5 35 VSS 3.33164e-18
RfN224 35#2 35#4 145.315216 $L=2.08 $W=0.17
Rh_2_N225 35 35#2 15.000000 $A=0.0289
Rh_2_N226 MX43/M0#d 35#4 15.000000 $A=0.0289
RmwN227 MX57/M0#s 35 0.001000 $W=1000000
RmwN228 MM0#d MX43/M0#d 0.001000 $W=1000000
*
*|NET 11 1.27215e-15
*|I (MX51/M0#g MX51/M0 g X 0 4.4300 0.8000)
*|I (MX47/M0#d MX47/M0 d X 0 0.3995 0.8000)
*|I (MX36/M0#g MX36/M0 g X 0 2.1950 0.8000)
*|I (MX44/M0#g MX44/M0 g X 0 4.4300 3.2800)
*|I (MX41/M0#d MX41/M0 d X 0 0.8295 3.2800)
*|I (MX40/M0#d MX40/M0 d X 0 0.5505 3.2800)
*|I (MX38/M0#g MX38/M0 g X 0 1.7650 3.2800)
*|S (11 1.7650 3.2800)
*|S (11#15 1.7750 1.7600)
*|S (11#16 1.7750 1.8500)
*|S (11#17 1.7750 2.0145)
*|S (11#18 4.3700 2.1345)
*|S (11#19 4.3400 1.9700)
*|S (11#20 4.3700 1.8050)
*|S (11#21 4.3400 1.9700)
*|S (11#22 1.7750 1.8500)
*|S (11#23 1.6400 1.9700)
*|S (11#24 0.6900 1.9700)
*|S (11#26 0.2600 0.8000)
*|S (11#28 0.6900 3.2800)
CL1 MX41/M0#d VSS 1.39403e-18
CL2 MX44/M0#g VSS 6.72611e-18
CL3 MX36/M0#g VSS 2.78103e-17
CL4 MX47/M0#d VSS 5.47008e-17
CL5 MX51/M0#g VSS 2.12908e-17
CL6 11#24 VSS 6.52546e-17
CL7 11#23 VSS 6.41546e-17
CL8 11#21 VSS 3.26508e-17
CL9 11 VSS 1.21705e-17
CL10 11#24 42 1.55962e-18
CL11 MX47/M0#d 42 2.69557e-17
CL12 MX51/M0#g VSS#6 2.53326e-18
CL13 MX36/M0#g VSS#10 2.43806e-18
CL14 MX51/M0#g MX52/M0#s 6.9416e-18
CL15 MX47/M0#d VSS#11 7.39245e-18
RgL185 MX36/M0#g 11#15 393.737457 $L=1.38 $W=0.15
RgL186 11#15 11#16 17.624519 $L=0.09 $W=0.27
RgL187 11#16 11#17 29.410925 $L=0.1645 $W=0.27
RgL188 11#17 11 406.531281 $L=1.265 $W=0.15
RgL189 MX44/M0#g 11#18 367.971313 $L=1.145 $W=0.15
RgL190 11#18 11#19 38.857975 $L=0.1645 $W=0.27
RgL191 11#19 11#20 38.857975 $L=0.1645 $W=0.27
RgL192 11#20 MX51/M0#g 322.984650 $L=1.005 $W=0.15
RfL193 11#21 11#22 187.634979 $L=2.565 $W=0.17
RfL194 11#22 11#23 7.416944 $L=0.1345 $W=0.37
RfL195 11#23 11#24 71.048111 $L=0.95 $W=0.17
RfL196 11#24 11#26 114.332367 $L=1.6 $W=0.17
RfL197 11#24 11#28 93.398911 $L=1.31 $W=0.17
RhL198 MX47/M0#d 11#26 15.000000 $A=0.0289
Rh_2_L199 MX41/M0#d 11#28 15.000000 $A=0.0289
RiL200 11#19 11#21 15.000000 $A=0.0187
RiL201 11#16 11#22 15.000000 $A=0.0289
RmwL202 MX40/M0#d MX41/M0#d 0.001000 $W=1000000
RmwL203 MX38/M0#g 11 0.001000 $W=1000000
*
*|NET 21 1.06352e-15
*|I (MX54/M0#d MX54/M0 d X 0 6.3155 0.8000)
*|I (MX35/M0#g MX35/M0 g X 0 7.4200 0.8000)
*|I (MX39/M0#d MX39/M0 d X 0 6.3155 3.2400)
*|I (MX34/M0#g MX34/M0 g X 0 7.4200 3.2400)
*|S (21 7.4200 3.2400)
*|S (21#8 7.4200 2.1045)
*|S (21#9 7.3300 1.9700)
*|S (21#10 7.4200 1.8350)
*|S (21#12 6.4550 3.2400)
*|S (21#13 6.4550 2.9450)
*|S (21#14 6.4550 1.0050)
*|S (21#16 6.4550 0.8000)
*|S (21#17 7.3300 1.9700)
*|S (21#18 6.4550 1.9700)
*|S (21#19 6.4550 2.9450)
*|S (21#20 6.4550 1.9700)
*|S (21#21 6.4550 1.0050)
CM1 MX35/M0#g VSS 2.24296e-17
CM2 MX54/M0#d VSS 1.65197e-17
CM3 21#21 VSS 3.05027e-17
CM4 21#20 VSS 1.79498e-18
CM5 21#19 VSS 2.55322e-18
CM6 21#17 VSS 2.50321e-17
CM7 21#18 VSS 2.26086e-17
CM8 21#13 VSS 1.80946e-18
CM9 21 VSS 2.88897e-18
CM10 MX35/M0#g VSS#4 4.29097e-18
CM11 MX35/M0#g MX37/M0#s 7.99336e-18
CM12 21#21 MX54/M0#s 7.90345e-18
CM13 MX54/M0#d MX54/M0#s 2.0759e-17
CM14 MX54/M0#d VSS#5 6.0875e-18
CM15 21#21 VSS#5 5.54372e-18
RgM204 21 21#8 364.749847 $L=1.135 $W=0.15
RgM205 21#8 21#9 31.545456 $L=0.1345 $W=0.33
RgM206 21#9 21#10 31.545456 $L=0.1345 $W=0.33
RgM207 21#10 MX35/M0#g 332.616516 $L=1.035 $W=0.15
RfM208 21#12 21#13 22.211765 $L=0.295 $W=0.17
RfM209 21#14 21#16 15.435293 $L=0.205 $W=0.17
RfM210 21#17 21#18 65.882355 $L=0.875 $W=0.17
ReM211 21#19 21#20 0.529891 $L=0.975 $W=0.23
ReM212 21#20 21#21 0.524457 $L=0.965 $W=0.23
RhM213 MX54/M0#d 21#16 15.000000 $A=0.0289
Rh_2_M214 MX39/M0#d 21#12 15.000000 $A=0.0289
RjM215 21#13 21#19 76.000000 $A=0.0578
RjM216 21#18 21#20 152.000000 $A=0.0289
RjM217 21#14 21#21 76.000000 $A=0.0578
RiM218 21#9 21#17 15.000000 $A=0.0289
RmwM219 MX34/M0#g 21 0.001000 $W=1000000
*
*|NET QN 6.26407e-16
*|P (QN X 0 8.2920 2.0740)
*|I (MX37/M0#d MX37/M0 d X 0 7.9255 0.8000)
*|I (MX33/M0#d MX33/M0 d X 0 7.9255 3.2400)
*|S (QN#2 8.0650 3.2400)
*|S (QN#3 8.0650 2.9450)
*|S (QN#4 8.0650 1.0050)
*|S (QN#6 8.0650 0.8000)
*|S (QN#7 8.0650 2.9450)
*|S (QN#8 8.2800 3.0350)
*|S (QN#9 8.2800 1.0050)
*|S (QN#10 8.0650 1.0050)
CD1 MX37/M0#d VSS 1.5966e-17
CD2 QN#10 VSS 5.47428e-17
CD3 QN#7 VSS 2.60418e-18
CD4 QN VSS 2.19971e-17
CD5 QN#3 21 2.44152e-18
CD6 QN 21#17 6.18539e-18
CD7 QN#7 MX33/M0#g 2.39123e-18
CD8 QN#10 MX37/M0#g 2.34193e-18
CD9 MX37/M0#d 3#32 1.70152e-17
CD10 QN 3#32 5.20019e-18
CD11 QN#3 MX33/M0#g 1.14365e-17
CD12 QN#10 3#32 2.02542e-17
CD13 QN#3 3#32 5.26999e-18
CD14 MX37/M0#d MX37/M0#g 8.12494e-18
CD15 MX37/M0#d MX37/M0#s 3.43621e-17
CD16 QN#10 VSS#22 3.31945e-17
CD17 QN#10 VSS#4 1.01101e-17
CD18 MX37/M0#d VSS#4 6.0875e-18
CD19 MX37/M0#d VSS#22 5.58537e-18
CD20 QN#10 MX37/M0#s 1.18743e-17
CD21 QN#3 VDD 1.97965e-17
CD22 QN#7 VDD#4 9.43578e-18
CD23 QN#3 VDD#4 6.1405e-18
CD24 QN#3 VDD#28 4.2095e-18
CD25 QN#7 VDD 6.1753e-17
CD26 QN#7 MX34/M0#s 9.07216e-18
CD27 QN#7 VDD#28 3.14488e-17
CD28 QN VDD 1.67537e-17
CD29 QN#3 MX34/M0#s 3.37297e-17
RfD25 QN#2 QN#3 22.211765 $L=0.295 $W=0.17
RfD26 QN#4 QN#6 15.435293 $L=0.205 $W=0.17
ReD27 QN#7 QN#8 0.071670 $L=0.215 $W=0.65
ReD28 QN#8 QN 0.311604 $L=0.961 $W=0.26
ReD29 QN QN#9 0.401691 $L=1.069 $W=0.26
ReD30 QN#9 QN#10 0.060344 $L=0.215 $W=0.65
RhD31 MX37/M0#d QN#6 15.000000 $A=0.0289
Rh_2_D32 MX33/M0#d QN#2 15.000000 $A=0.0289
RjD33 QN#3 QN#7 76.000000 $A=0.0578
RjD34 QN#4 QN#10 76.000000 $A=0.0578
*
*|NET SN 5.14928e-16
*|P (SN X 0 5.5370 1.6240)
*|I (MX52/M0#g MX52/M0 g X 0 4.8600 0.8000)
*|I (MX45/M0#g MX45/M0 g X 0 4.8600 3.2800)
*|S (SN#8 4.9300 1.9700)
*|S (SN#9 4.8600 1.8050)
*|S (SN#10 5.5200 1.9700)
*|S (SN#11 4.9300 1.9700)
*|S (SN#12 5.5200 1.9700)
CF1 MX45/M0#g VSS 3.55236e-18
CF2 MX52/M0#g VSS 2.13148e-17
CF3 SN#12 VSS 1.29127e-18
CF4 SN#11 VSS 1.54075e-17
CF5 SN#10 VSS 2.23257e-17
CF6 SN VSS 1.57049e-17
CF7 SN#12 21#18 1.9654e-18
CF8 SN#10 21#18 6.83592e-18
CF9 SN 21#21 4.95398e-18
CF10 SN#11 3#31 1.56197e-18
CF11 MX52/M0#g MX53/M0#d 1.28086e-18
CF12 SN#12 3#41 7.69187e-18
CF13 MX45/M0#g MX46/M0#s 4.57251e-18
CF14 SN#10 3#34 1.81997e-17
CF15 MX45/M0#g 3#31 3.15253e-18
CF16 SN#10 3#35 4.82476e-17
CF17 SN#11 3#35 2.76105e-17
CF18 SN#10 3#39 7.92303e-18
CF19 SN 3#39 1.97146e-17
CF20 SN#12 3#39 3.2224e-17
CF21 SN 3#35 3.78038e-17
CF22 SN#10 3#41 6.24316e-18
CF23 MX52/M0#g 3#35 5.82515e-18
CF24 MX52/M0#g 1#22 6.0322e-18
CF25 SN#11 1#22 2.57221e-17
CF26 SN#10 1#17 9.88621e-18
CF27 SN#12 1#17 4.20987e-18
CF28 SN#12 1#25 1.11069e-17
CF29 SN#12 1#22 4.78841e-17
CF30 SN#11 1#17 5.61732e-18
CF31 SN#10 1#25 4.33626e-18
CF32 SN 1#22 3.56224e-17
CF33 MX45/M0#g 1#22 6.63015e-18
CF34 MX52/M0#g VSS#6 4.29097e-18
CF35 MX52/M0#g MX52/M0#s 6.21439e-18
CF36 MX45/M0#g MX46/M0#d 1.56034e-18
CF37 MX45/M0#g VDD#29 1.51462e-18
CF38 SN#12 MX46/M0#d 1.46731e-18
CF39 SN#10 MX46/M0#d 1.43352e-18
CF40 MX45/M0#g VDD 8.35709e-18
CF41 MX45/M0#g MX45/M0#s 7.74262e-18
CF42 MX45/M0#g VDD#7 4.31255e-18
CF43 SN#12 VDD 5.5835e-18
RgF52 MX45/M0#g SN#8 397.382233 $L=1.31 $W=0.15
RgF53 SN#8 SN#9 34.134449 $L=0.1645 $W=0.27
RgF54 SN#9 MX52/M0#g 322.984650 $L=1.005 $W=0.15
RfF55 SN#10 SN#11 44.423527 $L=0.59 $W=0.17
ReF56 SN SN#12 0.166346 $L=0.346 $W=0.26
RjF57 SN#10 SN#12 152.000000 $A=0.0289
RiF58 SN#8 SN#11 15.000000 $A=0.0051
*
*|NET 1 2.65462e-15
*|I (MX56/M0#d MX56/M0 d X 0 1.8405 0.8000)
*|I (MX53/M0#g MX53/M0 g X 0 5.2900 0.8000)
*|I (MX36/M0#d MX36/M0 d X 0 2.1195 0.8000)
*|I (MX46/M0#g MX46/M0 g X 0 5.2900 3.2800)
*|I (MX38/M0#d MX38/M0 d X 0 1.8405 3.2800)
*|I (MM0#s MM0 s X 0 2.1195 3.2800)
*|S (1 5.2900 3.2800)
*|S (1#8 5.3500 2.7295)
*|S (1#9 5.3500 2.5650)
*|S (1#10 5.3500 2.4000)
*|S (1#12 1.9800 3.2800)
*|S (1#13 1.9800 3.0900)
*|S (1#15 1.9800 0.8000)
*|S (1#16 1.9800 0.4850)
*|S (1#17 5.3500 2.5650)
*|S (1#19 1.9800 0.4850)
*|S (1#20 2.0945 0.4100)
*|S (1#21 5.1200 2.5650)
*|S (1#22 5.0500 2.6400)
*|S (1#23 1.9800 3.2345)
*|S (1#24 1.9800 3.0900)
*|S (1#25 5.3500 2.5650)
CI1 MX38/M0#d VSS 2.50732e-18
CI2 MX53/M0#g VSS 2.14111e-17
CI3 MX56/M0#d VSS 1.18416e-18
CI4 1#25 VSS 6.07151e-18
CI5 1#24 VSS 1.48242e-17
CI6 1#22 VSS 1.38047e-16
CI7 1#20 VSS 3.96803e-16
CI8 1#17 VSS 3.73977e-18
CI9 1#16 VSS 2.02509e-17
CI10 1#13 VSS 4.72376e-18
CI11 1 VSS 3.16199e-18
CI12 1#20 46 2.72757e-18
CI13 MX53/M0#g 52 5.49462e-18
CI14 1#22 52 2.47602e-17
CI15 1#16 46 2.78619e-18
CI16 MX56/M0#d 46 1.67426e-17
CI17 1#16 28 2.78619e-18
CI18 1#20 28 1.02096e-17
CI19 MX38/M0#d MX43/M0#d 1.53562e-17
CI20 1#22 35 8.0868e-18
CI21 MX56/M0#d 28 1.67426e-17
CI22 MX38/M0#d 30 1.49909e-17
CI23 1#24 30 9.16498e-18
CI24 1#13 30 8.31776e-18
CI25 1#13 MX43/M0#d 1.24774e-17
CI26 1#24 35 1.70394e-17
CI27 1#24 MX43/M0#d 2.44912e-17
CI28 1#22 MX54/M0#d 2.54314e-18
CI29 1#22 21#13 2.32418e-18
CI30 1#17 21#13 2.02472e-18
CI31 1#22 21#21 1.53652e-17
CI32 1#20 MX51/M0#g 6.32352e-18
CI33 1#24 11#23 5.77647e-18
CI34 MX56/M0#d MX36/M0#g 4.60897e-18
CI35 MX38/M0#d 11 4.57251e-18
CI36 1#13 11 3.15253e-18
CI37 1#20 MX36/M0#g 3.10153e-18
CI38 1#13 11#23 2.60692e-18
CI39 1#22 11#21 2.49675e-18
CI40 1#16 MX36/M0#g 1.6071e-18
CI41 1#22 MX44/M0#g 7.03349e-18
CI42 1#22 9#18 7.12468e-18
CI43 1#24 9#14 4.95874e-18
CI44 MX56/M0#d MX56/M0#g 4.60897e-18
CI45 MX38/M0#d 9 4.57251e-18
CI46 1#17 9#14 4.3323e-18
CI47 1#20 9#18 4.22767e-18
CI48 1#13 9#15 4.06526e-18
CI49 1#13 9 3.26104e-18
CI50 1#24 MX44/M0#d 3.09249e-18
CI51 1#24 9#19 3.02743e-18
CI52 1#20 9#23 1.31745e-17
CI53 1#24 9#15 1.0227e-17
CI54 1#24 9 9.14799e-18
CI55 1#22 9#21 3.14784e-17
CI56 1#22 9#23 2.41132e-17
CI57 1#22 MX44/M0#d 2.4516e-17
CI58 1#20 MX51/M0#d 1.1463e-17
CI59 1#22 9#14 2.29637e-17
CI60 MX56/M0#d 9#19 2.59002e-17
CI61 1#24 3 8.00169e-18
CI62 1#22 MX46/M0#s 7.74049e-18
CI63 MX53/M0#g MX53/M0#d 7.2112e-18
CI64 1#17 3#41 6.70604e-18
CI65 1#22 3#39 6.50448e-18
CI66 MX53/M0#g 3#35 5.45041e-18
CI67 1#17 3#39 5.02028e-18
CI68 1 MX46/M0#s 4.82704e-18
CI69 1#20 MX50/M0#g 3.90987e-18