*
*|DSPF 1.5
*
*|DATE "Fri Feb 28 12:02:26 2025"
*|VENDOR "Cadence Design Systems"
*|PROGRAM "Cadence Quantus Extraction"
*|VERSION "22.1.0-p089 Linux 64 bit - (Thu Jan 19 11:47:08 PST 2023)"
*|DESIGN "TLATX1_LP"
*|DIVIDER /
*|DELIMITER #
*|DeviceFingerDelim "@"
*|BUSBIT []
*|GLOBAL_TEMPERATURE 25
*|OPERATING_TEMPERATURE 25
** QRC_TECH_DIR /vols/wfo_devel/projects/reference_SKY130/tech/sky130_release_0.0.4/quantus/extraction/typical 
** HIERARCHICAL_SPLIT_PINS_DELIMITER '%'
** caps2d version: 10
*
.SUBCKT  TLATX1_LP D G Q QN VDD VSS
*
*Net Section
*
*|GROUND_NET VSS
*
*|NET QN 5.43327e-16
*|P (QN X 0 6.4820 2.0740)
*|I (MX38/M0#d MX38/M0 d X 0 6.2505 0.8000)
*|I (MX30/M0#d MX30/M0 d X 0 6.2505 3.2500)
*|S (QN#2 6.3900 3.2500)
*|S (QN#3 6.3900 2.9450)
*|S (QN#4 6.3900 1.0050)
*|S (QN#6 6.3900 0.8000)
*|S (QN#7 6.3900 2.9450)
*|S (QN#8 6.4225 2.6200)
*|S (QN#9 6.4225 1.1495)
*|S (QN#10 6.3900 1.0050)
CD1 MX38/M0#d VSS 7.82354e-18
CD2 QN#9 VSS 4.87216e-17
CD3 QN#7 VSS 3.76235e-19
CD4 QN#4 VSS 9.41821e-18
CD5 QN#3 VSS 1.78158e-18
CD6 QN VSS 2.02503e-17
CD7 QN#3 4 2.44152e-18
CD8 QN 4#17 8.15489e-18
CD9 QN#7 MX30/M0#g 2.63037e-18
CD10 QN#3 MX30/M0#g 1.14384e-17
CD11 QN 3#35 2.20477e-17
CD12 MX38/M0#d MX38/M0#g 5.16926e-18
CD13 QN#3 3#35 2.7568e-18
CD14 QN#9 3#35 1.38628e-17
CD15 QN#4 MX38/M0#g 2.97297e-18
CD16 QN#4 3#35 9.78281e-18
CD17 MX38/M0#d MX38/M0#s 1.60061e-17
CD18 QN#4 MX38/M0#s 5.7037e-18
CD19 QN#9 VSS#1 3.07147e-18
CD20 MX38/M0#d VSS#20 4.04754e-18
CD21 QN#9 MX38/M0#s 7.59461e-18
CD22 QN#9 VSS#20 2.22171e-17
CD23 QN#9 VSS#2 2.80846e-18
CD24 MX38/M0#d VSS#2 4.34731e-18
CD25 QN#7 MX31/M0#s 1.07354e-17
CD26 QN#7 VDD 3.47145e-17
CD27 QN#3 MX31/M0#s 3.36165e-17
CD28 QN#7 VDD#1 3.04576e-18
CD29 QN#8 VDD 1.88765e-17
CD30 QN VDD 1.67537e-17
CD31 QN#7 VDD#2 2.73497e-18
CD32 QN#3 VDD#20 4.74431e-18
CD33 QN#3 VDD#2 4.5414e-18
CD34 QN#7 VDD#20 2.1763e-17
CD35 QN#3 VDD 2.14351e-17
RfD24 QN#2 QN#3 22.964706 $L=0.305 $W=0.17
RfD25 QN#4 QN#6 15.435294 $L=0.205 $W=0.17
ReD26 QN#7 QN#8 0.137606 $L=0.3245 $W=0.295
ReD27 QN#8 QN 0.262606 $L=0.546 $W=0.26
ReD28 QN QN#9 0.444337 $L=0.924 $W=0.26
ReD29 QN#9 QN#10 0.063408 $L=0.1445 $W=0.295
RhD30 MX38/M0#d QN#6 15.000000 $A=0.0289
Rh_2_D31 MX30/M0#d QN#2 15.000000 $A=0.0289
RjD32 QN#3 QN#7 76.000000 $A=0.0578
RjD33 QN#4 QN#10 152.000000 $A=0.0289
*
*|NET D 3.97395e-16
*|P (D X 0 0.8950 2.6100)
*|I (MX32/M0#g MX32/M0 g X 0 0.9050 0.8000)
*|I (MX42/M0#g MX42/M0 g X 0 0.9050 3.2800)
*|S (D#8 0.9050 2.6500)
*|S (D#9 0.9050 2.4850)
*|S (D#10 0.9050 2.6500)
*|S (D#11 0.8500 2.6500)
*|S (D#12 0.8500 2.6500)
CA1 MX42/M0#g VSS 1.92909e-18
CA2 MX32/M0#g VSS 2.15584e-17
CA3 D#12 VSS 3.24635e-18
CA4 D#11 VSS 5.73717e-19
CA5 MX42/M0#g 27 6.79301e-18
CA6 D#11 27 8.7373e-18
CA7 D#12 27 1.73602e-17
CA8 D#11 11#15 3.78077e-18
CA9 D#11 11#20 2.66341e-18
CA10 D#12 11#15 1.17289e-17
CA11 D#12 11#14 2.05708e-18
CA12 MX32/M0#g MX48/M0#d 1.31748e-18
CA13 D#12 2#17 1.13612e-18
CA14 MX42/M0#g MX39/M0#d 9.68813e-19
CA15 D#12 2#18 2.60434e-17
CA16 D#12 2#12 3.89879e-18
CA17 MX32/M0#g MX36/M0#d 1.54951e-18
CA18 D#12 MX41/M0#d 1.49275e-18
CA19 MX42/M0#g MX41/M0#d 1.13944e-18
CA20 MX32/M0#g 1#28 8.38689e-19
CA21 MX42/M0#g 1#22 7.8258e-19
CA22 D#12 1#22 2.05226e-18
CA23 D#11 1#30 1.3602e-17
CA24 D#12 1#32 1.70836e-17
CA25 D#12 1#30 4.00429e-17
CA26 D#11 1#28 1.4504e-17
CA27 D#12 1#28 4.43391e-18
CA28 D#12 1#27 4.27684e-18
CA29 D#11 1#27 6.98351e-18
CA30 MX32/M0#g VSS#12 3.64084e-18
CA31 MX32/M0#g MX36/M0#s 7.1702e-18
CA32 MX32/M0#g VSS#20 3.04019e-18
CA33 D#11 VDD#16 1.27158e-18
CA34 D#12 VDD#20 1.79757e-17
CA35 D#11 MX42/M0#s 2.56975e-17
CA36 MX42/M0#g VDD#20 3.20301e-18
CA37 D#12 MX42/M0#s 1.33433e-17
CA38 D#11 VDD#20 4.51333e-18
CA39 D#11 VDD 1.87856e-17
CA40 MX42/M0#g VDD#16 3.77064e-18
CA41 MX42/M0#g VDD 1.43761e-17
CA42 D#12 VDD#16 2.14236e-18
CA43 MX42/M0#g MX42/M0#s 8.68034e-18
CA44 D#12 VDD 1.89567e-17
CA45 D#12 G#11 1.56992e-18
CA46 D#11 MX41/M0#g 5.07127e-18
CA47 MX32/M0#g G#11 5.19006e-18
CA48 D#11 G#13 2.67667e-18
CA49 D#12 G#13 1.37453e-17
RgA1 MX42/M0#g D#8 183.599075 $L=0.63 $W=0.15
RgA2 D#8 D#9 34.134449 $L=0.1645 $W=0.27
RgA3 D#9 MX32/M0#g 541.491272 $L=1.685 $W=0.15
RfA4 D#10 D#11 4.141177 $L=0.055 $W=0.17
ReA5 D D#12 0.015873 $L=0.04 $W=0.315
RjA6 D#11 D#12 152.000000 $A=0.0289
RiA7 D#8 D#10 15.000000 $A=0.0289
*
*|NET 11 1.04101e-15
*|I (MX48/M0#g MX48/M0 g X 0 1.3350 0.8000)
*|I (MX37/M0#d MX37/M0 d X 0 2.7005 0.8000)
*|I (MX44/M0#d MX44/M0 d X 0 2.7005 3.2800)
*|I (MM0#g MM0 g X 0 1.7650 3.2800)
*|S (11 1.7650 3.2800)
*|S (11#8 1.3450 1.1250)
*|S (11#9 1.3450 1.2900)
*|S (11#10 1.7550 2.6445)
*|S (11#11 1.7550 2.4800)
*|S (11#13 2.8400 3.2800)
*|S (11#14 2.7600 2.6500)
*|S (11#15 1.7550 2.4800)
*|S (11#17 2.8400 0.8000)
*|S (11#18 2.7600 1.2900)
*|S (11#19 1.3450 1.2900)
*|S (11#20 2.7600 2.6500)
*|S (11#21 2.7600 2.5050)
*|S (11#22 2.7600 1.4345)
*|S (11#23 2.7600 1.2900)
CK1 MX44/M0#d VSS 9.35323e-19
CK2 MX37/M0#d VSS 4.99772e-18
CK3 MX48/M0#g VSS 1.98795e-17
CK4 11#23 VSS 2.51259e-17
CK5 11#20 VSS 2.93347e-18
CK6 11#19 VSS 2.51661e-17
CK7 11#15 VSS 4.5395e-18
CK8 11#18 VSS 2.74371e-17
CK9 11#14 VSS 3.6141e-18
CK10 11 VSS 2.97943e-18
CK11 11#15 31 1.12464e-17
CK12 11 31 6.77041e-18
CK13 11#19 24 1.37543e-17
CK14 11#18 24 2.26132e-18
CK15 MX48/M0#g 24 1.06539e-18
CK16 11#19 22 8.84202e-18
CK17 MX48/M0#g 22 5.27282e-18
CK18 MX48/M0#g VSS#12 4.87612e-18
CK19 MX48/M0#g VSS#20 4.8201e-18
CK20 11#19 VSS#20 4.57272e-18
CK21 MX37/M0#d VSS#20 4.08701e-18
CK22 MX37/M0#d VSS#11 3.94646e-18
CK23 MX37/M0#d VSS#5 2.09692e-18
CK24 11#18 VSS#11 1.67491e-18
CK25 11#19 VSS#12 1.65878e-18
CK26 MX37/M0#d MX46/M0#s 1.61301e-17
CK27 MX37/M0#d MX37/M0#s 1.95532e-17
CK28 11#18 MX37/M0#s 2.30361e-17
RgK162 MX48/M0#g 11#8 104.477959 $L=0.325 $W=0.15
RgK163 11#8 11#9 34.134449 $L=0.1645 $W=0.27
RgK164 11 11#10 204.091293 $L=0.635 $W=0.15
RgK165 11#10 11#11 34.134449 $L=0.1645 $W=0.27
RfK166 11#13 11#14 47.435295 $L=0.63 $W=0.17
RfK167 11#14 11#15 82.822311 $L=1.175 $W=0.17
RfK168 11#17 11#18 36.894119 $L=0.49 $W=0.17
RfK169 11#18 11#19 106.541176 $L=1.415 $W=0.17
ReK170 11#20 11#21 0.088170 $L=0.1445 $W=0.23
ReK171 11#21 11#22 0.955629 $L=1.07 $W=0.14
ReK172 11#22 11#23 0.088170 $L=0.1445 $W=0.23
RhK173 MX37/M0#d 11#17 15.000000 $A=0.0289
Rh_2_K174 MX44/M0#d 11#13 15.000000 $A=0.0289
RjK175 11#14 11#20 152.000000 $A=0.0289
RjK176 11#18 11#23 152.000000 $A=0.0289
RiK177 11#11 11#15 15.000000 $A=0.0289
RiK178 11#9 11#19 15.000000 $A=0.0289
RmwK179 MM0#g 11 0.001000 $W=1000000
*
*|NET 1 1.03779e-15
*|I (MX37/M0#g MX37/M0 g X 0 2.6250 0.8000)
*|I (MX36/M0#d MX36/M0 d X 0 0.3995 0.8000)
*|I (MX35/M0#g MX35/M0 g X 0 1.7650 0.8000)
*|I (MX44/M0#g MX44/M0 g X 0 2.6250 3.2800)
*|I (MX41/M0#d MX41/M0 d X 0 0.3995 3.2800)
*|I (MX39/M0#g MX39/M0 g X 0 1.3350 3.2800)
*|S (1 1.3350 3.2800)
*|S (1#15 1.7650 1.9700)
*|S (1#16 1.5500 1.9700)
*|S (1#17 1.3350 1.9700)
*|S (1#18 2.6600 1.9700)
*|S (1#19 2.6850 1.8050)
*|S (1#21 0.2600 3.2800)
*|S (1#22 0.2600 3.0900)
*|S (1#23 0.2600 0.8500)
*|S (1#25 0.2600 0.8000)
*|S (1#26 2.6600 1.9700)
*|S (1#27 1.5500 1.9700)
*|S (1#28 0.3050 1.9700)
*|S (1#29 0.2600 3.0900)
*|S (1#30 0.2600 2.9450)
*|S (1#31 0.3050 2.1145)
*|S (1#32 0.3050 1.9700)
*|S (1#33 0.3050 1.8250)
*|S (1#34 0.2600 0.9945)
*|S (1#35 0.2600 0.8500)
CG1 MX44/M0#g VSS 6.32371e-18
CG2 MX35/M0#g VSS 1.92419e-17
CG3 MX36/M0#d VSS 1.15922e-17
CG4 MX37/M0#g VSS 1.23274e-17
CG5 1#35 VSS 3.30104e-17
CG6 1#33 VSS 2.82457e-17
CG7 1#32 VSS 3.65482e-18
CG8 1#30 VSS 4.99572e-19
CG9 1#27 VSS 3.57296e-17
CG10 1#26 VSS 2.13027e-17
CG11 1#28 VSS 2.63796e-17
CG12 1 VSS 4.29462e-18
CG13 1#30 27 1.10935e-18
CG14 1#27 27 3.52947e-18
CG15 1 27 6.76678e-18
CG16 MX37/M0#g 11#18 4.10091e-18
CG17 MX44/M0#g 11#14 4.01635e-18
CG18 1#27 MX48/M0#g 3.10388e-18
CG19 1#26 11#15 3.09612e-18
CG20 1#32 11#15 2.39409e-18
CG21 MX44/M0#g 11#20 1.67151e-18
CG22 1#26 11#14 1.1014e-17
CG23 MX35/M0#g 11#19 9.50937e-18
CG24 1#26 11#20 1.25111e-17
CG25 1#26 11#23 8.70124e-18
CG26 1#27 11#15 2.63903e-17
CG27 MX37/M0#g MX37/M0#d 7.45465e-18
CG28 MX44/M0#g MX44/M0#d 9.26233e-18
CG29 1#27 11#19 2.51974e-17
CG30 1#26 3 2.73266e-18
CG31 1#33 3#38 1.5364e-18
CG32 1#26 3#38 5.4379e-17
CG33 1#27 3#38 1.80453e-17
CG34 1 MX39/M0#d 4.59009e-18
CG35 1#35 2#20 4.01717e-18
CG36 1 2#12 3.15253e-18
CG37 1#26 2#18 2.40964e-18
CG38 1 2#18 2.34155e-18
CG39 MX35/M0#g 2#20 2.04496e-18
CG40 MX41/M0#d 2#18 1.98396e-18
CG41 1#32 2#17 1.74731e-18
CG42 1#26 2#20 1.68114e-18
CG43 1#27 2#18 7.89865e-18
CG44 1#26 2#19 5.71652e-18
CG45 MX35/M0#g MX48/M0#d 6.23699e-18
CG46 1#27 2#12 7.02707e-18
CG47 1#27 2#20 5.39079e-18
CG48 MX35/M0#g VSS#11 4.87612e-18
CG49 MX36/M0#d VSS#13 4.62862e-18
CG50 1#28 VSS#20 3.21532e-18
CG51 1#35 VSS#13 2.93569e-18
CG52 1#27 VSS#20 2.64439e-18
CG53 MX37/M0#g VSS#11 2.40555e-18
CG54 MX35/M0#g VSS#20 2.27992e-18
CG55 MX37/M0#g VSS#20 2.27992e-18
CG56 MX37/M0#g MX46/M0#s 1.79444e-18
CG57 MX36/M0#d VSS#20 5.41652e-18
CG58 1#35 VSS#20 1.85592e-17
CG59 MX36/M0#d MX36/M0#s 2.01478e-17
CG60 MX37/M0#g MX37/M0#s 7.54782e-18
CG61 1#35 MX36/M0#s 6.58967e-18
RgG78 MX35/M0#g 1#15 347.526733 $L=1.17 $W=0.15
RgG79 1#15 1#16 39.939335 $L=0.215 $W=0.27
RgG80 1#16 1#17 39.939335 $L=0.215 $W=0.27
RgG81 1#17 1 392.513397 $L=1.31 $W=0.15
RgG82 MX44/M0#g 1#18 397.382233 $L=1.31 $W=0.15
RgG83 1#18 1#19 38.857975 $L=0.1645 $W=0.27
RgG84 1#19 MX37/M0#g 322.984650 $L=1.005 $W=0.15
RfG85 1#21 1#22 14.305882 $L=0.19 $W=0.17
RfG86 1#23 1#25 3.764706 $L=0.05 $W=0.17
RfG87 1#26 1#27 83.576469 $L=1.11 $W=0.17
RfG88 1#27 1#28 93.741173 $L=1.245 $W=0.17
ReG89 1#29 1#30 0.088170 $L=0.1445 $W=0.23
ReG90 1#30 1#31 0.741343 $L=0.83 $W=0.14
ReG91 1#31 1#32 0.097672 $L=0.1445 $W=0.23
ReG92 1#32 1#33 0.078668 $L=0.1445 $W=0.23
ReG93 1#33 1#34 0.741343 $L=0.83 $W=0.14
ReG94 1#34 1#35 0.088170 $L=0.1445 $W=0.23
RhG95 MX36/M0#d 1#25 15.000000 $A=0.0289
Rh_2_G96 MX41/M0#d 1#21 15.000000 $A=0.0289
RjG97 1#22 1#29 152.000000 $A=0.0289
RjG98 1#28 1#32 152.000000 $A=0.0289
RjG99 1#23 1#35 152.000000 $A=0.0289
RiG100 1#18 1#26 15.000000 $A=0.0204
RiG101 1#16 1#27 15.000000 $A=0.0289
RmwG102 MX39/M0#g 1 0.001000 $W=1000000
*
*|NET 22 1.10134e-16
*|I (MX48/M0#s MX48/M0 s X 0 1.2595 0.8000)
*|I (MX32/M0#d MX32/M0 d X 0 0.9805 0.8000)
*|S (22 1.1200 0.8000)
CL1 22 VSS 1.16152e-17
CL2 22 VSS#20 7.47365e-18
CL3 22 MX36/M0#s 2.34637e-17
CL4 22 VSS#12 6.01853e-18
RmwL180 MX48/M0#s 22 0.001000 $W=1000000
RmwL181 MX32/M0#d 22 0.001000 $W=1000000
*
*|NET 24 1.003e-16
*|I (MX35/M0#s MX35/M0 s X 0 1.8405 0.8000)
*|I (MX33/M0#d MX33/M0 d X 0 2.1195 0.8000)
*|S (24 1.9800 0.8000)
CL5 24 VSS 1.20662e-17
CL6 24 VSS#20 3.69288e-18
CL7 24 MX37/M0#s 1.93491e-17
CL8 24 VSS#11 5.9884e-18
RmwL182 MX35/M0#s 24 0.001000 $W=1000000
RmwL183 MX33/M0#d 24 0.001000 $W=1000000
*
*|NET 27 1.2325e-16
*|I (MX42/M0#d MX42/M0 d X 0 0.9805 3.2800)
*|I (MX39/M0#s MX39/M0 s X 0 1.2595 3.2800)
*|S (27 1.1200 3.2800)
CL9 27 VSS 3.4529e-18
RmwL184 MX42/M0#d 27 0.001000 $W=1000000
RmwL185 MX39/M0#s 27 0.001000 $W=1000000
*
*|NET VSS 2.15312e-15
*|P (VSS X 0 3.4400 -0.0050)
*|I (MX47/M0#s MX47/M0 s X 0 4.4895 0.8000)
*|I (MX46/M0#s MX46/M0 s X 0 3.5395 0.8000)
*|I (MX38/M0#s MX38/M0 s X 0 6.0995 0.8000)
*|I (MX37/M0#s MX37/M0 s X 0 2.5495 0.8000)
*|I (MX36/M0#s MX36/M0 s X 0 0.5505 0.8000)
*|I (MX34/M0#s MX34/M0 s X 0 5.8205 0.8000)
*|I (MX33/M0#s MX33/M0 s X 0 2.2705 0.8000)
*|I (MX32/M0#s MX32/M0 s X 0 0.8295 0.8000)
*|S (VSS#1 6.8995 0.0000)
*|S (VSS#2 5.9600 0.0000)
*|S (VSS#3 4.3500 0.0000)
*|S (VSS#4 3.4500 0.0000)
*|S (VSS#5 3.4500 0.0000)
*|S (VSS#8 5.9600 0.8000)
*|S (VSS#10 4.3500 0.8000)
*|S (VSS#11 2.4100 0.0000)
*|S (VSS#12 0.6900 0.0000)
*|S (VSS#13 0.0000 0.0000)
*|S (VSS#15 3.4000 0.8000)
*|S (VSS#17 2.4100 0.8000)
*|S (VSS#19 0.6900 0.8000)
*|S (VSS#20 3.4500 0.0000)
RfF56 VSS#1 VSS#2 47.827209 $L=0.9395 $W=0.25
RfF57 VSS#2 VSS#3 81.881622 $L=1.61 $W=0.25
RfF58 VSS#3 VSS#4 45.804813 $L=0.9 $W=0.25
RfF59 VSS#2 VSS#8 53.627445 $L=0.8 $W=0.17
RfF60 VSS#3 VSS#10 53.627445 $L=0.8 $W=0.17
RfF61 VSS#4 VSS#11 52.972813 $L=1.04 $W=0.25
RfF62 VSS#11 VSS#12 87.513618 $L=1.72 $W=0.25
RfF63 VSS#12 VSS#13 35.052811 $L=0.69 $W=0.25
RfF64 VSS#4 VSS#15 57.223530 $L=0.8 $W=0.17
RfF65 VSS#11 VSS#17 53.627445 $L=0.8 $W=0.17
RfF66 VSS#12 VSS#19 53.627445 $L=0.8 $W=0.17
ReF67 VSS#20 VSS 0.003125 $L=0.01 $W=0.4
RhF68 MX38/M0#s VSS#8 15.000000 $A=0.0289
RhF69 MX47/M0#s VSS#10 15.000000 $A=0.0289
RhF70 MX46/M0#s VSS#15 15.000000 $A=0.0289
RhF71 MX37/M0#s VSS#17 15.000000 $A=0.0289
RhF72 MX36/M0#s VSS#19 15.000000 $A=0.0289
Rh_3_F73 VSS#5 VSS#4 1.071429 $A=0.4046
RjF74 VSS#4 VSS#20 10.857142 $A=0.4046
RmwF75 MX34/M0#s MX38/M0#s 0.001000 $W=1000000
RmwF76 MX33/M0#s MX37/M0#s 0.001000 $W=1000000
RmwF77 MX32/M0#s MX36/M0#s 0.001000 $W=1000000
*
*|NET G 4.60733e-16
*|P (G X 0 0.9420 1.4340)
*|I (MX36/M0#g MX36/M0 g X 0 0.4750 0.8000)
*|I (MX41/M0#g MX41/M0 g X 0 0.4750 3.2800)
*|S (G#8 0.4100 1.4545)
*|S (G#9 0.4050 1.2900)
*|S (G#10 0.4100 1.1250)
*|S (G#11 0.8350 1.2900)
*|S (G#12 0.4050 1.2900)
*|S (G#13 0.8350 1.2900)
CB1 MX41/M0#g VSS 3.00518e-18
CB2 MX36/M0#g VSS 1.50819e-17
CB3 G#13 VSS 4.42466e-17
CB4 G#12 VSS 1.46866e-17
CB5 G#11 VSS 7.73423e-18
CB6 G#13 22 1.96958e-17
CB7 MX36/M0#g 22 1.59103e-18
CB8 G#13 11#18 1.54553e-18
CB9 G#13 11#19 8.78299e-18
CB10 G#11 11#19 1.32539e-17
CB11 G#13 MX48/M0#d 3.32015e-18
CB12 G#13 2#20 1.71219e-17
CB13 G#12 1#33 2.24184e-18
CB14 MX36/M0#g 1#35 1.96517e-18
CB15 G#13 MX36/M0#d 1.93993e-18
CB16 MX41/M0#g 1#30 1.50468e-18
CB17 G#12 MX36/M0#d 1.71022e-17
CB18 G#13 1#35 3.67094e-17
CB19 G#13 1#27 6.49159e-18
CB20 G#11 1#27 2.98605e-18
CB21 MX36/M0#g 1#28 2.60048e-18
CB22 MX41/M0#g 1#22 4.095e-18
CB23 MX36/M0#g MX36/M0#d 8.14645e-18
CB24 MX36/M0#g 1#33 2.51458e-18
CB25 MX41/M0#g MX41/M0#d 6.02125e-18
CB26 G#13 1#33 2.63095e-17
CB27 G#12 1#28 1.13594e-17
CB28 MX41/M0#g 1#28 2.82458e-18
CB29 G#12 1#35 2.12165e-17
CB30 G#11 1#28 7.20347e-18
CB31 G#13 1#28 8.00825e-18
CB32 G#11 VSS#20 1.93701e-18
CB33 G#11 VSS#12 1.35414e-18
CB34 MX36/M0#g VSS#20 4.33444e-18
CB35 G#11 MX36/M0#s 1.75765e-17
CB36 G#12 VSS#20 2.49635e-18
CB37 MX36/M0#g VSS#12 3.64084e-18
CB38 G#13 VSS#12 2.7046e-18
CB39 G#13 MX36/M0#s 9.40884e-18
CB40 G#13 VSS#20 2.13691e-17
CB41 MX36/M0#g MX36/M0#s 8.41205e-18
CB42 G#12 MX36/M0#s 7.73671e-18
CB43 MX41/M0#g VDD#20 4.69279e-18
CB44 MX41/M0#g VDD#16 4.08514e-18
CB45 MX41/M0#g VDD 1.11643e-17
CB46 MX41/M0#g MX42/M0#s 1.02608e-17
RgB8 MX41/M0#g G#8 586.476379 $L=1.825 $W=0.15
RgB9 G#8 G#9 38.686840 $L=0.1645 $W=0.28
RgB10 G#9 G#10 38.686840 $L=0.1645 $W=0.28
RgB11 G#10 MX36/M0#g 104.476364 $L=0.325 $W=0.15
RfB12 G#11 G#12 32.376472 $L=0.43 $W=0.17
ReB13 G#13 G 0.054545 $L=0.144 $W=0.33
RjB14 G#11 G#13 152.000000 $A=0.0289
RiB15 G#9 G#12 15.000000 $A=0.0289
*
*|NET 31 1.16924e-16
*|I (MX43/M0#d MX43/M0 d X 0 2.1195 3.2800)
*|I (MM0#d MM0 d X 0 1.8405 3.2800)
*|S (31 1.9800 3.2800)
CM1 31 VSS 9.64984e-18
RmwM186 MX43/M0#d 31 0.001000 $W=1000000
RmwM187 MM0#d 31 0.001000 $W=1000000
*
*|NET VDD 1.7778e-15
*|P (VDD X 0 3.4400 4.1400)
*|I (MX45/M0#s MX45/M0 s X 0 3.5395 3.2800)
*|I (MX44/M0#s MX44/M0 s X 0 2.5495 3.2800)
*|I (MX43/M0#s MX43/M0 s X 0 2.2705 3.2800)
*|I (MX42/M0#s MX42/M0 s X 0 0.8295 3.2800)
*|I (MX41/M0#s MX41/M0 s X 0 0.5505 3.2800)
*|I (MX40/M0#s MX40/M0 s X 0 4.4895 3.2500)
*|I (MX31/M0#s MX31/M0 s X 0 5.8205 3.2500)
*|I (MX30/M0#s MX30/M0 s X 0 6.0995 3.2500)
*|S (VDD#1 6.8995 4.1400)
*|S (VDD#2 5.9600 4.1400)
*|S (VDD#3 4.3500 4.1400)
*|S (VDD#4 3.4500 4.1400)
*|S (VDD#5 3.4500 4.1400)
*|S (VDD#8 5.9600 3.2500)
*|S (VDD#10 4.3500 3.2500)
*|S (VDD#12 3.4000 3.2800)
*|S (VDD#13 2.4100 4.1400)
*|S (VDD#15 2.4100 3.2800)
*|S (VDD#16 0.6900 4.1400)
*|S (VDD#18 0.6900 3.2800)
*|S (VDD#19 0.0000 4.1400)
*|S (VDD#20 3.4500 4.1400)
CE1 MX31/M0#s VSS 1.20223e-18
CE2 MX42/M0#s VSS 3.39622e-18
CE3 MX44/M0#s VSS 1.06399e-18
CE4 MX45/M0#s VSS 2.3562e-18
CE5 VDD#20 VSS 1.02908e-17
CE6 VDD#16 VSS 8.20676e-19
CE7 VDD#13 VSS 2.3753e-18
CE8 VDD#2 VSS 1.1395e-18
CE9 VDD#1 VSS 1.78158e-18
CE10 VDD#19 VSS 1.08857e-19
CE11 VDD#5 VSS 2.25571e-18
CE12 VDD VSS 9.09371e-19
CE13 MX44/M0#s 31 2.6166e-17
CE14 VDD#20 31 3.83676e-18
CE15 VDD#13 31 6.0228e-18
CE16 VDD#16 27 6.04287e-18
CE17 VDD#20 27 7.42648e-18
CE18 MX42/M0#s 27 2.58887e-17
CE19 VDD#13 11 5.04997e-18
CE20 VDD#20 MX44/M0#d 4.18579e-18
CE21 VDD#13 MX44/M0#d 3.98076e-18
CE22 MX45/M0#s 11#14 3.41881e-18
CE23 VDD#20 11 2.41657e-18
CE24 VDD#5 MX44/M0#d 2.11511e-18
CE25 MX44/M0#s 11 1.76883e-18
CE26 VDD#13 11#15 1.63521e-18
CE27 MX44/M0#s 11#14 2.66776e-17
CE28 VDD 11#15 2.46973e-17
CE29 VDD 11#20 2.51116e-17
CE30 VDD 11#14 2.32244e-17
CE31 MX45/M0#s MX44/M0#d 1.85594e-17
CE32 VDD 11 9.68227e-18
CE33 MX44/M0#s MX44/M0#d 2.78123e-17
CE34 VDD#20 4 5.51584e-18
CE35 MX40/M0#s 4#19 1.03663e-17
CE36 VDD#2 4 5.88424e-18
CE37 VDD 4#20 4.78342e-18
CE38 VDD 4#19 1.22228e-17
CE39 MX31/M0#s 4 1.0798e-17
CE40 VDD 4#13 1.40582e-17
CE41 VDD 4 1.33641e-17
CE42 MX40/M0#s 4#13 3.28392e-17
CE43 VDD#3 4#13 6.32113e-18
CE44 VDD#20 4#13 5.96147e-18
CE45 VDD#3 4#19 5.45943e-18
CE46 VDD#20 4#19 2.11331e-17
CE47 VDD 3 7.48582e-18
CE48 VDD 3#40 7.34245e-18
CE49 MX40/M0#s 3#36 6.26566e-18
CE50 MX31/M0#s 3#35 6.26566e-18
CE51 VDD#20 MX45/M0#d 6.02107e-18
CE52 MX40/M0#s 3#39 5.72919e-18
CE53 VDD#20 MX30/M0#g 5.51584e-18
CE54 VDD#20 MX40/M0#g 5.51584e-18
CE55 VDD 3#31 5.13106e-18
CE56 VDD#5 MX45/M0#d 4.82456e-18
CE57 VDD#2 MX30/M0#g 4.39356e-18
CE58 VDD#3 MX40/M0#g 4.39356e-18
CE59 MX45/M0#s 3#39 4.2122e-18
CE60 VDD#13 3 3.75381e-18
CE61 VDD#20 3#37 3.73452e-18
CE62 MX45/M0#s 3#31 1.16262e-17
CE63 MX44/M0#s 3 8.6703e-18
CE64 VDD MX30/M0#g 1.2134e-17
CE65 MX45/M0#s MX45/M0#d 1.73856e-17
CE66 MX40/M0#s MX45/M0#d 1.36142e-17
CE67 MX40/M0#s MX40/M0#g 1.28256e-17
CE68 VDD MX40/M0#g 1.20929e-17
CE69 MX40/M0#s 3#31 8.66839e-18
CE70 MX31/M0#s MX30/M0#g 1.13636e-17
CE71 VDD#20 3#39 1.37392e-17
CE72 VDD 3#39 1.12936e-17
CE73 MX42/M0#s 2#18 7.69426e-18
CE74 VDD 2#12 6.60261e-18
CE75 VDD#16 2#18 6.41527e-18
CE76 VDD#5 2 5.77573e-18
CE77 VDD#20 2 5.21861e-18
CE78 MX45/M0#s 2#17 4.6753e-18
CE79 VDD#20 MX39/M0#d 3.91785e-18
CE80 VDD#16 MX39/M0#d 3.6362e-18
CE81 MX44/M0#s 2#19 3.63467e-18
CE82 VDD#13 MX39/M0#d 3.61274e-18
CE83 MX40/M0#s 2#19 2.97042e-18
CE84 MX40/M0#s 2 2.89069e-18
CE85 MX45/M0#s 2#18 2.1216e-18
CE86 VDD#5 2#20 1.84146e-18
CE87 VDD#3 2#19 1.2795e-18
CE88 VDD#5 2#19 1.36696e-17
CE89 VDD#20 2#18 1.47677e-16
CE90 VDD 2#19 3.44584e-17
CE91 VDD 2#18 2.02005e-17
CE92 VDD#13 2#18 2.50362e-17
CE93 MX45/M0#s 2#19 4.07079e-17
CE94 VDD 2#17 1.61087e-17
CE95 MX45/M0#s 2 1.10499e-17
CE96 VDD#20 2#19 6.2886e-17
CE97 VDD 2 1.36142e-17
CE98 MX44/M0#s 2#18 3.34693e-17
CE99 VDD#19 MX41/M0#d 4.65982e-18
CE100 VDD#20 1#28 3.01227e-18
CE101 VDD#20 1#27 2.67296e-18
CE102 VDD#13 MX44/M0#g 2.49132e-18
CE103 VDD#20 MX44/M0#g 2.41657e-18
CE104 VDD 1#32 3.67908e-17
CE105 VDD#20 1 5.21861e-18
CE106 VDD 1#30 3.33091e-17
CE107 VDD 1#22 6.92698e-18
CE108 VDD#16 1 5.77573e-18
CE109 VDD MX44/M0#g 5.37235e-18
CE110 VDD#20 MX41/M0#d 6.00165e-18
CE111 MX42/M0#s MX41/M0#d 1.94473e-17
CE112 VDD#20 1#30 1.21072e-17
CE113 VDD 1 1.34714e-17
CE114 MX42/M0#s 1#30 5.88349e-18
CE115 MX44/M0#s MX44/M0#g 9.14042e-18
CE116 MX42/M0#s 1#22 1.14936e-17
CE117 VDD MX41/M0#d 1.08956e-17
RfE34 VDD#1 VDD#2 47.827209 $L=0.9395 $W=0.25
RfE35 VDD#2 VDD#3 81.881622 $L=1.61 $W=0.25
RfE36 VDD#3 VDD#4 45.804813 $L=0.9 $W=0.25
RfE37 VDD#2 VDD#8 60.403915 $L=0.89 $W=0.17
RfE38 VDD#3 VDD#10 60.403915 $L=0.89 $W=0.17
RfE39 VDD#4 VDD#12 61.741177 $L=0.86 $W=0.17
RfE40 VDD#4 VDD#13 52.972813 $L=1.04 $W=0.25
RfE41 VDD#13 VDD#15 58.145092 $L=0.86 $W=0.17
RfE42 VDD#13 VDD#16 87.513618 $L=1.72 $W=0.25
RfE43 VDD#16 VDD#18 58.145092 $L=0.86 $W=0.17
RfE44 VDD#16 VDD#19 35.052811 $L=0.69 $W=0.25
ReE45 VDD#20 VDD 0.003125 $L=0.01 $W=0.4
Rh_1_E46 VDD#5 VDD#4 1.071429 $A=0.4046
Rh_2_E47 MX31/M0#s VDD#8 15.000000 $A=0.0289
Rh_2_E48 MX40/M0#s VDD#10 15.000000 $A=0.0289
Rh_2_E49 MX45/M0#s VDD#12 15.000000 $A=0.0289
Rh_2_E50 MX44/M0#s VDD#15 15.000000 $A=0.0289
Rh_2_E51 MX42/M0#s VDD#18 15.000000 $A=0.0289
RjE52 VDD#4 VDD#20 10.857142 $A=0.4046
RmwE53 MX43/M0#s MX44/M0#s 0.001000 $W=1000000
RmwE54 MX41/M0#s MX42/M0#s 0.001000 $W=1000000
RmwE55 MX30/M0#s MX31/M0#s 0.001000 $W=1000000
*
*|NET 3 1.58469e-15
*|I (MX47/M0#g MX47/M0 g X 0 4.5650 0.8000)
*|I (MX46/M0#d MX46/M0 d X 0 3.6905 0.8000)
*|I (MX38/M0#g MX38/M0 g X 0 6.1750 0.8000)
*|I (MX33/M0#g MX33/M0 g X 0 2.1950 0.8000)
*|I (MX45/M0#d MX45/M0 d X 0 3.6905 3.2800)
*|I (MX43/M0#g MX43/M0 g X 0 2.1950 3.2800)
*|I (MX40/M0#g MX40/M0 g X 0 4.5650 3.2500)
*|I (MX30/M0#g MX30/M0 g X 0 6.1750 3.2500)
*|S (3 2.1950 3.2800)
*|S (3#22 2.2050 1.6300)
*|S (3#23 2.2050 1.4650)
*|S (3#24 4.5650 1.7645)
*|S (3#25 4.4750 1.6300)
*|S (3#26 4.5650 1.4950)
*|S (3#27 6.2650 1.6300)
*|S (3#28 6.1750 1.4950)
*|S (3#30 3.8300 3.2800)
*|S (3#31 3.8300 3.0900)
*|S (3#32 3.8300 0.8500)
*|S (3#34 3.8300 0.8000)
*|S (3#35 6.2650 1.6300)
*|S (3#36 4.4750 1.6300)
*|S (3#37 3.8300 1.6300)
*|S (3#38 2.2050 1.6300)
*|S (3#39 3.8300 3.0900)
*|S (3#40 3.8300 1.6300)
*|S (3#41 3.8300 0.8500)
CI1 MX40/M0#g VSS 6.22177e-19
CI2 MX45/M0#d VSS 3.20698e-19
CI3 MX33/M0#g VSS 2.1226e-17
CI4 MX38/M0#g VSS 1.51191e-17
CI5 MX46/M0#d VSS 3.01899e-18
CI6 MX47/M0#g VSS 1.73504e-17
CI7 3#41 VSS 7.12643e-18
CI8 3#40 VSS 1.07798e-17
CI9 3#39 VSS 2.63481e-18
CI10 3#38 VSS 4.21606e-17
CI11 3#36 VSS 3.42266e-17
CI12 3#35 VSS 3.08572e-17
CI13 3#37 VSS 4.16041e-17
CI14 3#31 VSS 1.21572e-18
CI15 3 VSS 1.27436e-17
CI16 3#38 11#14 3.37473e-18
CI17 3#39 11#14 1.99591e-18
CI18 3 MX44/M0#d 1.66503e-18
CI19 3 11#15 6.57101e-18
CI20 3#38 11#23 2.90717e-17
CI21 3#38 11#19 1.23925e-17
CI22 MX33/M0#g 11#18 6.9216e-18
CI23 3#38 11#18 7.78922e-17
CI24 MX40/M0#g 4#18 3.16329e-18
CI25 MX40/M0#g 4#19 2.87332e-18
CI26 MX47/M0#g 4#14 2.83066e-18
CI27 3#41 4#14 2.34624e-18
CI28 MX47/M0#g 4#21 2.05669e-18
CI29 MX46/M0#d 4#21 1.46701e-18
CI30 MX45/M0#d 4#19 1.11947e-18
CI31 3#35 MX34/M0#g 5.39907e-18
CI32 3#40 4#21 9.54494e-18
CI33 3#36 4#17 1.3516e-17
CI34 3#39 4#19 3.18183e-17
CI35 3#36 4#18 5.48267e-17
CI36 3#35 4#17 4.28937e-17
CI37 3#39 4#13 4.55561e-18
CI38 3#41 4#21 1.75795e-17
CI39 3#36 4#14 1.03852e-17
CI40 3#36 4#20 3.53955e-17
CI41 MX47/M0#g MX47/M0#d 4.92632e-18
CI42 MX40/M0#g 4#13 1.09034e-17
CI43 3#40 4#20 2.52534e-17
CI44 3#40 4#18 5.5397e-18
CI45 3#37 MX46/M0#s 7.72939e-18
CI46 MX33/M0#g MX37/M0#s 7.16322e-18
CI47 3#35 VSS#20 6.91105e-18
CI48 3#41 MX47/M0#s 5.73948e-18
CI49 MX46/M0#d VSS#20 5.476e-18
CI50 MX38/M0#g VSS#20 4.8201e-18
CI51 MX47/M0#g VSS#20 4.8201e-18
CI52 MX46/M0#d VSS#5 4.79226e-18
CI53 MX47/M0#g VSS#3 4.29097e-18
CI54 MX38/M0#g VSS#2 4.29097e-18
CI55 3#41 MX46/M0#s 4.16644e-18
CI56 3#41 VSS#5 3.85147e-18
CI57 MX33/M0#g VSS#11 3.64084e-18
CI58 MX46/M0#d MX47/M0#s 1.45832e-17
CI59 3#35 MX38/M0#s 8.42702e-18
CI60 MX46/M0#d MX46/M0#s 1.89019e-17
CI61 MX47/M0#g MX47/M0#s 9.37686e-18
CI62 3#36 MX47/M0#s 1.07439e-17
CI63 MX38/M0#g MX38/M0#s 8.39729e-18
CI64 3#41 VSS#20 1.74471e-17
CI65 3#37 VSS#20 8.22447e-18
CI66 3#36 VSS#20 1.32588e-17
RgI120 3 3#22 506.635559 $L=1.65 $W=0.15
RgI121 3#22 3#23 34.134449 $L=0.1645 $W=0.27
RgI122 3#23 MX33/M0#g 213.731293 $L=0.665 $W=0.15
RgI123 MX40/M0#g 3#24 477.216522 $L=1.485 $W=0.15
RgI124 3#24 3#25 31.545456 $L=0.1345 $W=0.33
RgI125 3#25 3#26 31.545456 $L=0.1345 $W=0.33
RgI126 3#26 MX47/M0#g 223.363174 $L=0.695 $W=0.15
RgI127 MX30/M0#g 3#27 496.898193 $L=1.62 $W=0.15
RgI128 3#27 3#28 31.545456 $L=0.1345 $W=0.33
RgI129 3#28 MX38/M0#g 223.363174 $L=0.695 $W=0.15
RfI130 3#30 3#31 14.305882 $L=0.19 $W=0.17
RfI131 3#32 3#34 3.764706 $L=0.05 $W=0.17
RfI132 3#35 3#36 134.776459 $L=1.79 $W=0.17
RfI133 3#36 3#37 48.564705 $L=0.645 $W=0.17
RfI134 3#37 3#38 122.352943 $L=1.625 $W=0.17
ReI135 3#39 3#40 0.793478 $L=1.46 $W=0.23
ReI136 3#40 3#41 0.423913 $L=0.78 $W=0.23
RhI137 MX46/M0#d 3#34 15.000000 $A=0.0289
Rh_2_I138 MX45/M0#d 3#30 15.000000 $A=0.0289
RjI139 3#31 3#39 152.000000 $A=0.0289
RjI140 3#37 3#40 152.000000 $A=0.0289
RjI141 3#32 3#41 152.000000 $A=0.0289
RiI142 3#27 3#35 15.000000 $A=0.0289
RiI143 3#25 3#36 15.000000 $A=0.0289
RiI144 3#22 3#38 15.000000 $A=0.0289
RmwI145 MX43/M0#g 3 0.001000 $W=1000000
*
*|NET 2 1.84842e-15
*|I (MX48/M0#d MX48/M0 d X 0 1.4105 0.8000)
*|I (MX46/M0#g MX46/M0 g X 0 3.6150 0.8000)
*|I (MX35/M0#d MX35/M0 d X 0 1.6895 0.8000)
*|I (MX45/M0#g MX45/M0 g X 0 3.6150 3.2800)
*|I (MX39/M0#d MX39/M0 d X 0 1.4105 3.2800)
*|I (MM0#s MM0 s X 0 1.6895 3.2800)
*|S (2 3.6150 3.2800)
*|S (2#8 3.6150 2.3100)
*|S (2#9 3.4900 2.3100)
*|S (2#11 1.5500 3.2800)
*|S (2#12 1.5500 3.0900)
*|S (2#13 1.5500 0.8500)
*|S (2#15 1.5500 0.8000)
*|S (2#16 3.4900 2.3100)
*|S (2#17 3.3450 2.3100)
*|S (2#18 1.5500 3.0900)
*|S (2#19 3.3450 2.3100)
*|S (2#20 1.5500 0.8500)
CH1 MX39/M0#d VSS 1.70019e-18
CH2 MX46/M0#g VSS 1.64119e-17
CH3 MX48/M0#d VSS 3.44664e-18
CH4 2#20 VSS 4.05052e-17
CH5 2#19 VSS 3.17456e-17
CH6 2#18 VSS 5.70062e-18
CH7 2#12 VSS 2.83455e-18
CH8 2#17 VSS 3.34345e-18
CH9 2 VSS 1.15506e-18
CH10 2#12 31 8.31776e-18
CH11 2#19 31 1.65869e-18
CH12 MX39/M0#d 31 1.56687e-17
CH13 2#18 31 2.75861e-17
CH14 2#19 24 1.26747e-18
CH15 2#18 27 9.82845e-18
CH16 2#12 27 1.05862e-17
CH17 MX48/M0#d 24 1.74759e-17
CH18 MX39/M0#d 27 1.57281e-17
CH19 2#20 22 8.33435e-18
CH20 MX48/M0#d 22 1.78266e-17
CH21 2#20 24 2.33791e-17
CH22 MX39/M0#d 11 4.59009e-18
CH23 2#12 11 3.15253e-18
CH24 2#18 11#14 2.99236e-18
CH25 2#18 11 2.7747e-18
CH26 2#18 11#19 2.17071e-18
CH27 2#20 MX48/M0#g 2.00291e-18
CH28 2 MX44/M0#d 1.97144e-18
CH29 2#19 11#23 5.15226e-17
CH30 2#17 11#20 7.22546e-18
CH31 2#20 11#23 1.41166e-17
CH32 2#19 11#14 1.27134e-17
CH33 2#19 MX44/M0#d 2.05842e-17
CH34 2#19 11#18 1.08721e-17
CH35 2#18 MX44/M0#d 9.62057e-18
CH36 2#18 11#15 5.70091e-18
CH37 2#20 11#19 1.3822e-17
CH38 2#20 11#18 6.47392e-18
CH39 2#20 MX37/M0#d 2.07595e-17
CH40 2#18 11#20 9.9236e-18
CH41 2#19 MX37/M0#d 6.4815e-18
CH42 2#19 11#20 5.50905e-17
CH43 MX48/M0#d MX48/M0#g 6.23699e-18
CH44 MX48/M0#d 11#19 2.44822e-17
CH45 2#17 4#20 1.96005e-18
CH46 2#19 4#13 1.87267e-18
CH47 2#19 4#21 1.70616e-18
CH48 2#19 4#18 1.30225e-18
CH49 2#19 4#19 5.11848e-18
CH50 MX46/M0#g MX46/M0#d 7.46971e-18
CH51 MX46/M0#g 3#37 5.96811e-18
CH52 2 MX45/M0#d 5.623e-18
CH53 2#19 MX45/M0#d 5.45901e-18
CH54 2#19 MX46/M0#d 5.36025e-18
CH55 2#20 3#38 5.20219e-18
CH56 2#17 3#40 5.01227e-18
CH57 2 3#37 3.8701e-18
CH58 2 3#31 3.73978e-18
CH59 2#20 3#37 3.37784e-18
CH60 2#17 3#39 2.54281e-18
CH61 2#19 3#31 2.42391e-18
CH62 MX46/M0#g 3#41 1.58078e-18
CH63 2 3#39 1.29975e-18
CH64 2#17 3#37 1.15562e-17
CH65 2#19 3#37 3.51095e-17
CH66 2#19 3#39 7.80917e-17
CH67 2#19 3#40 9.34395e-17
CH68 2#19 3#41 4.55223e-17
CH69 MX46/M0#g MX46/M0#s 9.14143e-18
CH70 2#19 VSS#5 7.60573e-18
CH71 2#20 MX36/M0#s 6.9339e-18
CH72 2#20 VSS#12 5.62151e-18
CH73 MX46/M0#g VSS#20 4.8201e-18
CH74 2#20 VSS#5 4.75156e-18
CH75 MX46/M0#g VSS#5 4.29097e-18
CH76 MX48/M0#d VSS#20 3.68464e-18
CH77 MX48/M0#d VSS#12 3.60532e-18
CH78 MX48/M0#d VSS#11 3.58206e-18
CH79 2#19 MX47/M0#s 2.74776e-18
CH80 MX46/M0#g MX47/M0#s 2.31929e-18
CH81 2#19 MX46/M0#s 3.30434e-17
CH82 2#20 MX37/M0#s 3.02507e-17
CH83 2#19 VSS#20 2.80827e-17
CH84 2#20 VSS#20 1.8868e-16
CH85 2#20 VSS#11 2.3656e-17
RgH103 2 2#8 306.709076 $L=0.97 $W=0.15
RgH104 2#8 2#9 7.376061 $L=0.125 $W=0.33
RgH105 2#8 MX46/M0#g 480.229095 $L=1.51 $W=0.15
RfH106 2#11 2#12 14.305882 $L=0.19 $W=0.17
RfH107 2#13 2#15 3.764706 $L=0.05 $W=0.17
RfH108 2#16 2#17 10.917647 $L=0.145 $W=0.17
ReH109 2#18 2#19 1.843487 $L=3.595 $W=0.23
ReH110 2#19 2#20 2.006530 $L=3.895 $W=0.23
RhH111 MX48/M0#d 2#15 15.000000 $A=0.0289
Rh_2_H112 MX39/M0#d 2#11 15.000000 $A=0.0289
RjH113 2#12 2#18 152.000000 $A=0.0289
RjH114 2#17 2#19 152.000000 $A=0.0289
RjH115 2#13 2#20 152.000000 $A=0.0289
RiH116 2#9 2#16 15.000000 $A=0.0068
RmwH117 MX35/M0#d MX48/M0#d 0.001000 $W=1000000
RmwH118 MX45/M0#g 2 0.001000 $W=1000000
RmwH119 MM0#s MX39/M0#d 0.001000 $W=1000000
*
*|NET Q 6.58658e-16
*|P (Q X 0 5.5220 1.9990)
*|I (MX34/M0#d MX34/M0 d X 0 5.6695 0.8000)
*|I (MX31/M0#d MX31/M0 d X 0 5.6695 3.2500)
*|S (Q#2 5.5300 3.2500)
*|S (Q#3 5.5300 2.9450)
*|S (Q#4 5.5300 1.0050)
*|S (Q#6 5.5300 0.8000)
*|S (Q#7 5.5300 1.0050)
*|S (Q#8 5.5300 2.9450)
CC1 MX34/M0#d VSS 2.04127e-18
CC2 Q#8 VSS 3.96623e-19
CC3 Q#7 VSS 1.79719e-17
CC4 Q#4 VSS 7.10618e-18
CC5 Q VSS 1.3489e-18
CC6 Q#7 4#20 2.98837e-18
CC7 Q#7 4#14 2.92076e-18
CC8 Q#4 MX34/M0#g 2.71996e-18
CC9 Q#4 4#21 2.51787e-18
CC10 Q#8 4#20 2.51388e-18
CC11 Q#8 4 2.35997e-18
CC12 Q#7 MX47/M0#d 2.24303e-18
CC13 MX34/M0#d 4#21 2.04339e-18
CC14 MX34/M0#d MX34/M0#g 4.70176e-18
CC15 Q#3 4 1.0438e-17
CC16 Q#7 4#21 4.3759e-17
CC17 Q 4#17 3.59944e-17
CC18 Q#3 4#17 6.84332e-18
CC19 Q#4 4#14 4.68283e-18
CC20 MX34/M0#d MX47/M0#d 4.68664e-18
CC21 Q 4#20 3.46687e-17
CC22 Q#3 4#19 7.40555e-18
CC23 Q#3 4#13 1.62878e-17
CC24 Q#8 4#13 8.09235e-18
CC25 Q#8 4#19 5.77287e-17
CC26 Q#3 MX30/M0#g 2.4294e-18
CC27 Q#3 MX40/M0#g 2.22314e-18
CC28 Q#8 MX40/M0#g 1.49102e-18
CC29 MX34/M0#d MX38/M0#g 1.09236e-18
CC30 Q#4 3#35 1.03852e-17
CC31 Q#7 3#35 1.69654e-17
CC32 Q 3#35 1.9761e-17
CC33 Q#7 VSS#20 2.26124e-17
CC34 MX34/M0#d VSS#2 6.05099e-18
CC35 Q#7 VSS#2 6.18552e-18
CC36 MX34/M0#d VSS#20 5.36212e-18
CC37 MX34/M0#d MX38/M0#s 1.51374e-17
CC38 Q#4 MX38/M0#s 5.70427e-18
CC39 Q#7 MX38/M0#s 6.31186e-18
CC40 Q#3 VDD#20 5.96147e-18
CC41 Q#3 MX31/M0#s 3.28275e-17
CC42 Q#8 MX31/M0#s 9.17546e-18
CC43 Q#8 VDD#2 6.09663e-18
CC44 Q#3 VDD#2 6.32113e-18
CC45 Q#3 VDD 1.08615e-17
CC46 Q#8 VDD#20 2.2133e-17
CC47 Q VDD 4.77738e-18
CC48 Q#8 VDD 1.93897e-17
CC49 Q#4 QN#4 2.46223e-18
CC50 Q#4 QN#9 2.40805e-18
CC51 Q#3 QN#8 1.72404e-18
CC52 Q#7 QN#4 1.69687e-18
CC53 Q QN#9 1.5896e-18
CC54 Q#8 QN 1.15303e-18
CC55 Q QN 2.66963e-17
CC56 Q#3 QN#3 5.16787e-18
CC57 Q#7 QN#9 3.61946e-17
CC58 Q#3 QN#7 4.0229e-18
CC59 Q#8 QN#8 1.80556e-17
CC60 Q#8 QN#3 4.87658e-18
CC61 Q#8 QN#7 2.88932e-17
RfC16 Q#2 Q#3 22.964706 $L=0.305 $W=0.17
RfC17 Q#4 Q#6 15.435294 $L=0.205 $W=0.17
ReC18 Q Q#7 0.477885 $L=0.994 $W=0.26
ReC19 Q Q#8 0.454808 $L=0.946 $W=0.26
RhC20 MX34/M0#d Q#6 15.000000 $A=0.0289