*
*|DSPF 1.5
*
*|DATE "Fri Feb 28 11:58:07 2025"
*|VENDOR "Cadence Design Systems"
*|PROGRAM "Cadence Quantus Extraction"
*|VERSION "22.1.0-p089 Linux 64 bit - (Thu Jan 19 11:47:08 PST 2023)"
*|DESIGN "XNOR2X4_LP"
*|DIVIDER /
*|DELIMITER #
*|DeviceFingerDelim "@"
*|BUSBIT []
*|GLOBAL_TEMPERATURE 25
*|OPERATING_TEMPERATURE 25
** QRC_TECH_DIR /vols/wfo_devel/projects/reference_SKY130/tech/sky130_release_0.0.4/quantus/extraction/typical 
** HIERARCHICAL_SPLIT_PINS_DELIMITER '%'
** caps2d version: 10
*
.SUBCKT  XNOR2X4_LP A B VDD VSS Y
*
*Net Section
*
*|GROUND_NET VSS
*
*|NET VSS 1.39767e-15
*|P (VSS X 0 2.4150 0.0050)
*|I (MX27/M0#s MX27/M0 s X 0 2.6095 1.0100)
*|I (MX27/M1#d MX27/M1 d X 0 3.1905 1.0100)
*|I (MX23/M0#s MX23/M0 s X 0 2.2705 0.8000)
*|I (MX21/M0#s MX21/M0 s X 0 0.5505 0.8000)
*|I (MX20/M0#s MX20/M0 s X 0 0.8295 0.8000)
*|S (VSS#2 3.3300 1.0100)
*|S (VSS#3 3.4625 0.0000)
*|S (VSS#4 2.4700 0.0000)
*|S (VSS#5 1.8400 0.0000)
*|S (VSS#6 1.8400 0.0000)
*|S (VSS#8 0.6900 0.0000)
*|S (VSS#9 0.0000 0.0000)
*|S (VSS#11 2.4700 1.0100)
*|S (VSS#13 0.6900 0.8000)
*|S (VSS#14 1.8400 0.0000)
RfD37 VSS#2 VSS#3 75.491081 $L=1.01 $W=0.17
RfD38 VSS#3 VSS#4 43.330799 $L=0.9925 $W=0.25
RfD39 VSS#4 VSS#5 31.980810 $L=0.63 $W=0.25
RfD40 VSS#5 VSS#8 58.604813 $L=1.15 $W=0.25
RfD41 VSS#8 VSS#9 35.052811 $L=0.69 $W=0.25
RfD42 VSS#4 VSS#11 69.439209 $L=1.01 $W=0.17
RfD43 VSS#8 VSS#13 53.627445 $L=0.8 $W=0.17
ReD44 VSS VSS#14 0.179688 $L=0.575 $W=0.4
RhD45 MX27/M1#d VSS#2 7.500000 $A=0.0578
RhD46 MX27/M0#s VSS#11 7.500000 $A=0.0578
RhD47 MX21/M0#s VSS#13 15.000000 $A=0.0289
Rh_3_D48 VSS#6 VSS#5 2.142857 $A=0.2023
RjD49 VSS#5 VSS#14 21.714285 $A=0.2023
RmwD50 MX23/M0#s MX27/M0#s 0.001000 $W=1000000
RmwD51 MX20/M0#s MX21/M0#s 0.001000 $W=1000000
*
*|NET 7 1.52302e-15
*|I (MX22/M0#g MX22/M0 g X 0 1.7650 0.8000)
*|I (MX21/M0#d MX21/M0 d X 0 0.3995 0.8000)
*|I (MX19/M0#d MX19/M0 d X 0 0.3995 3.3500)
*|I (MM0#g MM0 g X 0 1.3350 3.3500)
*|S (7 1.3350 3.3500)
*|S (7#8 1.3450 2.8145)
*|S (7#9 1.3450 2.6500)
*|S (7#10 1.7550 1.2050)
*|S (7#11 1.7550 1.3700)
*|S (7#13 0.2600 0.8000)
*|S (7#14 0.2600 0.5700)
*|S (7#15 2.0500 1.3700)
*|S (7#16 1.7550 1.3700)
*|S (7#17 2.0500 2.6500)
*|S (7#18 1.3450 2.6500)
*|S (7#19 0.3400 2.6500)
*|S (7#21 0.2600 3.3500)
*|S (7#22 0.3400 2.6500)
*|S (7#23 0.3150 2.5050)
*|S (7#24 0.2600 0.7145)
*|S (7#25 0.2600 0.5700)
*|S (7#26 2.0500 2.6500)
*|S (7#27 2.0500 2.5050)
*|S (7#28 2.0500 1.5145)
*|S (7#29 2.0500 1.3700)
CH1 MX19/M0#d VSS 2.10698e-19
CH2 MX21/M0#d VSS 1.16783e-18
CH3 MX22/M0#g VSS 1.58727e-17
CH4 7#18 VSS 2.34437e-18
CH5 7#16 VSS 1.13528e-17
CH6 7#29 VSS 3.28882e-18
CH7 7#26 VSS 1.80642e-18
CH8 7#25 VSS 6.49655e-17
CH9 7#23 VSS 2.96198e-17
CH10 7#14 VSS 6.63231e-18
CH11 7#19 VSS 2.33747e-18
CH12 7#15 VSS 1.16551e-17
CH13 7#17 VSS 3.22405e-18
CH14 7 VSS 1.17905e-18
CH15 7#17 15 1.1773e-17
CH16 7#26 15 5.11794e-18
CH17 7#15 13 8.29456e-18
CH18 7#29 13 5.69477e-18
CH19 7 15 1.75876e-18
CH20 MX22/M0#g 13 6.20184e-18
CH21 7#16 13 4.66402e-18
CH22 MX22/M0#g VSS#6 4.93608e-18
CH23 7#14 VSS#14 3.78179e-18
CH24 7#25 VSS#9 3.3409e-18
CH25 7#29 MX27/M0#s 2.70836e-18
CH26 7#25 VSS#8 2.31527e-18
CH27 MX22/M0#g VSS#14 2.31316e-18
CH28 7#14 VSS#8 2.11507e-18
CH29 7#29 VSS#6 1.75128e-18
CH30 MX22/M0#g MX27/M0#s 1.4759e-18
CH31 7#16 VSS#6 1.36329e-18
CH32 7#25 MX21/M0#s 1.48343e-17
CH33 7#14 MX21/M0#s 1.01044e-17
CH34 7#14 VSS#9 7.15871e-18
CH35 7#25 VSS#14 3.88099e-17
CH36 MX21/M0#d MX21/M0#s 1.40349e-17
CH37 7#15 MX27/M0#s 1.80107e-17
RgH111 7 7#8 171.957962 $L=0.535 $W=0.15
RgH112 7#8 7#9 34.134449 $L=0.1645 $W=0.27
RgH113 MX22/M0#g 7#10 130.184631 $L=0.405 $W=0.15
RgH114 7#10 7#11 34.134449 $L=0.1645 $W=0.27
RfH115 7#13 7#14 17.317648 $L=0.23 $W=0.17
RfH116 7#15 7#16 22.211765 $L=0.295 $W=0.17
RfH117 7#17 7#18 53.082352 $L=0.705 $W=0.17
RfH118 7#18 7#19 75.670593 $L=1.005 $W=0.17
RfH119 7#19 7#21 52.705883 $L=0.7 $W=0.17
ReH120 7#22 7#23 0.064621 $L=0.1445 $W=0.28
ReH121 7#23 7#24 1.316424 $L=1.79 $W=0.17
ReH122 7#24 7#25 0.083049 $L=0.1445 $W=0.23
ReH123 7#26 7#27 0.078668 $L=0.1445 $W=0.23
ReH124 7#27 7#28 0.884200 $L=0.99 $W=0.14
ReH125 7#28 7#29 0.097672 $L=0.1445 $W=0.23
RhH126 MX21/M0#d 7#13 15.000000 $A=0.0289
Rh_2_H127 MX19/M0#d 7#21 15.000000 $A=0.0289
RjH128 7#19 7#22 152.000000 $A=0.0289
RjH129 7#14 7#25 152.000000 $A=0.0289
RjH130 7#17 7#26 152.000000 $A=0.0289
RjH131 7#15 7#29 152.000000 $A=0.0289
RiH132 7#11 7#16 15.000000 $A=0.0289
RiH133 7#9 7#18 15.000000 $A=0.0289
RmwH134 MM0#g 7 0.001000 $W=1000000
*
*|NET 13 1.07345e-16
*|I (MX23/M0#d MX23/M0 d X 0 2.1195 0.8000)
*|I (MX22/M0#s MX22/M0 s X 0 1.8405 0.8000)
*|S (13 1.9800 0.8000)
CI1 13 VSS 5.56826e-18
CI2 13 MX27/M0#s 1.55395e-17
CI3 13 VSS#6 4.88657e-18
CI4 13 VSS#14 3.79061e-18
RmwI135 MX23/M0#d 13 0.001000 $W=1000000
RmwI136 MX22/M0#s 13 0.001000 $W=1000000
*
*|NET 15 1.45619e-16
*|I (MX31/M0#d MX31/M0 d X 0 1.8405 3.3500)
*|I (MX30/M0#d MX30/M0 d X 0 2.1195 3.3500)
*|S (15 1.9800 3.3500)
CI5 15 VSS 1.8689e-17
RmwI137 MX31/M0#d 15 0.001000 $W=1000000
RmwI138 MX30/M0#d 15 0.001000 $W=1000000
*
*|NET 2 2.13917e-15
*|I (MX27/M0#g MX27/M0 g X 0 2.6850 1.0100)
*|I (MX27/M1#g MX27/M1 g X 0 3.1150 1.0100)
*|I (MX26/M0#d MX26/M0 d X 0 1.4105 0.8000)
*|I (MX22/M0#d MX22/M0 d X 0 1.6895 0.8000)
*|I (MX31/M0#s MX31/M0 s X 0 1.6895 3.3500)
*|I (MX25/M0#g MX25/M0 g X 0 2.6850 3.0400)
*|I (MX25/M1#g MX25/M1 g X 0 3.1150 3.0400)
*|I (MM0#d MM0 d X 0 1.4105 3.3500)
*|S (2 2.6850 3.0400)
*|S (2#15 3.1600 1.7975)
*|S (2#16 2.9450 1.7950)
*|S (2#17 2.6850 1.7975)
*|S (2#18 3.1600 1.6350)
*|S (2#20 1.5500 3.3500)
*|S (2#21 1.5500 3.3250)
*|S (2#23 1.5500 0.8000)
*|S (2#24 1.5500 0.5850)
*|S (2#25 3.3300 1.7950)
*|S (2#26 2.9450 1.7950)
*|S (2#27 1.5500 3.3250)
*|S (2#28 1.6645 3.3250)
*|S (2#29 2.3900 3.3850)
*|S (2#30 1.6645 0.5100)
*|S (2#31 1.5500 0.5850)
*|S (2#32 3.3300 1.9395)
*|S (2#33 3.3300 1.7950)
CG1 MX25/M1#g VSS 1.68077e-18
CG2 MX26/M0#d VSS 6.21789e-18
CG3 MX27/M1#g VSS 1.23276e-17
CG4 MX27/M0#g VSS 1.67595e-17
CG5 2#26 VSS 1.60349e-17
CG6 2#33 VSS 3.90315e-17
CG7 2#30 VSS 1.86573e-17
CG8 2#29 VSS 8.96323e-18
CG9 2#28 VSS 1.12069e-18
CG10 2#24 VSS 5.49204e-18
CG11 2#21 VSS 3.48217e-18
CG12 2#25 VSS 1.73978e-17
CG13 2 VSS 4.02992e-18
CG14 MX27/M0#g 13 1.3779e-18
CG15 2 15 1.95094e-18
CG16 MX26/M0#d 13 1.54202e-17
CG17 2#29 15 1.5598e-17
CG18 2#30 13 1.74103e-17
CG19 2#28 15 1.78145e-17
CG20 2#21 15 2.90702e-17
CG21 2#24 13 5.18509e-18
CG22 MX26/M0#d MX22/M0#g 3.9819e-18
CG23 MX26/M0#d 7#16 3.84309e-18
CG24 2#28 7#26 3.22136e-18
CG25 2#28 7#18 2.47801e-18
CG26 2#24 MX22/M0#g 2.2383e-18
CG27 2#28 7#17 2.0556e-18
CG28 2#28 7 1.29801e-18
CG29 2#30 MX22/M0#g 1.2727e-18
CG30 2#30 7#29 5.85785e-17
CG31 2#29 7#26 1.03969e-16
CG32 2#21 7 7.79987e-18
CG33 2#30 7#15 7.7607e-18
CG34 2#29 7#29 4.59967e-17
CG35 2#29 7#17 8.11507e-18
CG36 2#21 7#18 1.33787e-17
CG37 MX27/M1#g VSS#14 5.90522e-18
CG38 MX27/M0#g VSS#4 5.86975e-18
CG39 MX27/M1#g VSS#3 5.86975e-18
CG40 2#24 VSS#14 3.87915e-18
CG41 MX27/M0#g MX27/M1#d 3.85072e-18
CG42 MX27/M0#g VSS#14 3.44704e-18
CG43 2#26 VSS#14 3.3105e-18
CG44 2#30 VSS#4 2.61632e-18
CG45 2#25 VSS#14 2.57403e-18
CG46 MX27/M1#g MX27/M0#s 2.426e-18
CG47 2#24 MX27/M0#s 1.94201e-18
CG48 2#30 MX27/M1#d 1.86257e-18
CG49 MX27/M1#g MX27/M1#d 1.51589e-17
CG50 2#33 MX27/M1#d 8.75896e-18
CG51 2#30 MX27/M0#s 4.04543e-17
CG52 2#30 VSS#6 1.20991e-17
CG53 2#24 VSS#6 1.06946e-17
CG54 MX27/M0#g MX27/M0#s 1.31506e-17
CG55 2#25 MX27/M1#d 1.54395e-17
CG56 2#30 VSS#14 1.00978e-16
RgG86 MX25/M1#g 2#15 390.742035 $L=1.2425 $W=0.15
RgG87 2#15 2#16 32.437237 $L=0.215 $W=0.325
RgG88 2#16 2#17 27.511078 $L=0.26 $W=0.325
RgG89 2#17 MX27/M0#g 248.147202 $L=0.7875 $W=0.15
RgG90 2#15 2#18 31.686674 $L=0.162 $W=0.24
RgG91 2#18 MX27/M1#g 200.883545 $L=0.625 $W=0.15
RgG92 2#17 2 394.353851 $L=1.2425 $W=0.15
RfG93 2#20 2#21 1.882353 $L=0.025 $W=0.17
RfG94 2#23 2#24 16.188236 $L=0.215 $W=0.17
RfG95 2#25 2#26 28.988235 $L=0.385 $W=0.17
ReG96 2#27 2#28 0.066295 $L=0.1145 $W=0.29
ReG97 2#28 2#29 0.529595 $L=0.725 $W=0.17
ReG98 2#29 2#30 3.102865 $L=3.6 $W=0.14
ReG99 2#30 2#31 0.076068 $L=0.1145 $W=0.29
ReG100 2#29 2#32 1.695052 $L=2.385 $W=0.17
ReG101 2#32 2#33 0.083049 $L=0.1445 $W=0.23
RhG102 MX26/M0#d 2#23 15.000000 $A=0.0289
Rh_2_G103 MX31/M0#s 2#20 15.000000 $A=0.0289
RjG104 2#21 2#27 152.000000 $A=0.0289
RjG105 2#24 2#31 152.000000 $A=0.0289
RjG106 2#25 2#33 152.000000 $A=0.0289
RiG107 2#16 2#26 7.500000 $A=0.0578
RmwG108 MX22/M0#d MX26/M0#d 0.001000 $W=1000000
RmwG109 MX25/M0#g 2 0.001000 $W=1000000
RmwG110 MM0#d MX31/M0#s 0.001000 $W=1000000
*
*|NET B 6.27287e-16
*|P (B X 0 0.9350 1.8950)
*|I (MX26/M0#g MX26/M0 g X 0 1.3350 0.8000)
*|I (MX21/M0#g MX21/M0 g X 0 0.4750 0.8000)
*|I (MX31/M0#g MX31/M0 g X 0 1.7650 3.3500)
*|I (MX19/M0#g MX19/M0 g X 0 0.4750 3.3500)
*|S (B#15 0.4700 2.1400)
*|S (B#16 0.4700 1.9750)
*|S (B#17 1.5895 2.1400)
*|S (B#18 1.4250 2.1400)
*|S (B#19 1.3350 2.0050)
*|S (B#20 1.4250 2.1400)
*|S (B#21 0.9200 2.1400)
*|S (B#22 0.4700 2.1400)
*|S (B#23 0.9200 2.1400)
CB1 MX19/M0#g VSS 8.09616e-19
CB2 MX31/M0#g VSS 9.54821e-18
CB3 MX21/M0#g VSS 1.39239e-17
CB4 MX26/M0#g VSS 1.3841e-17
CB5 B#22 VSS 9.35239e-18
CB6 B#20 VSS 1.26202e-17
CB7 B#23 VSS 1.03933e-17
CB8 B#21 VSS 8.03116e-18
CB9 MX21/M0#g 7#14 2.7846e-18
CB10 MX19/M0#g 7#23 2.14275e-18
CB11 MX31/M0#g 7#18 1.71733e-18
CB12 B#23 7#25 1.65211e-18
CB13 MX21/M0#g 7#25 1.42662e-18
CB14 B#20 7#18 1.89598e-17
CB15 B#22 7#23 2.76496e-17
CB16 B#23 7#19 4.58875e-18
CB17 B#22 7#19 1.97067e-17
CB18 B#21 7#19 6.85293e-18
CB19 MX19/M0#g MX19/M0#d 1.15141e-17
CB20 MX31/M0#g 7#17 6.13257e-18
CB21 B#21 7#18 1.16126e-17
CB22 B#23 7#23 4.77915e-17
CB23 B#23 7#18 4.21669e-18
CB24 MX21/M0#g MX21/M0#d 7.42137e-18
CB25 MX19/M0#g 7#19 3.86992e-18
CB26 B#20 7#26 6.98624e-18
CB27 B#20 2#29 2.49174e-18
CB28 MX26/M0#g 2#24 2.31534e-18
CB29 MX31/M0#g 2#28 2.06727e-18
CB30 B#20 MX26/M0#d 2.05569e-18
CB31 MX26/M0#g MX26/M0#d 3.9819e-18
CB32 MX31/M0#g 2#21 7.79987e-18
CB33 MX31/M0#g 1#25 3.06043e-18
CB34 B#23 1#18 2.30969e-18
CB35 MX26/M0#g 1#16 2.2383e-18
CB36 MX26/M0#g 1#22 2.23591e-18
CB37 MX19/M0#g 1#13 2.10251e-18
CB38 B#20 1#22 2.03902e-18
CB39 B#21 1#25 1.64582e-18
CB40 MX31/M0#g 1#13 1.62872e-18
CB41 MX21/M0#g MX26/M0#s 1.0733e-18
CB42 B#20 1#25 3.94901e-18
CB43 B#23 1#23 3.76724e-18
CB44 MX26/M0#g MX26/M0#s 3.9819e-18
CB45 B#20 1#23 1.10271e-17
CB46 MX26/M0#g VSS#14 3.07094e-18
CB47 B#22 VSS#14 1.40525e-18
CB48 MX21/M0#g MX21/M0#s 7.29044e-18
CB49 MX21/M0#g VSS#8 4.29097e-18
CB50 MX26/M0#g VSS#6 5.74683e-18
CB51 MX21/M0#g VSS#14 4.15551e-18
CB52 B#22 MX21/M0#s 3.26625e-18
CB53 MX31/M0#g MX30/M0#s 1.89791e-18
CB54 B#21 VDD#14 1.44463e-18
CB55 B#23 VDD#8 1.31211e-18
CB56 B#22 VDD 9.70381e-18
CB57 B#20 VDD 8.60676e-18
CB58 MX19/M0#g VDD 1.13989e-17
CB59 B#21 VDD 3.95186e-18
CB60 MX31/M0#g VDD#6 6.34945e-18
CB61 B#23 VDD 1.14814e-17
CB62 MX31/M0#g VDD 1.33967e-17
CB63 MX19/M0#g VDD#8 3.14287e-18
CB64 MX19/M0#g VDD#14 4.62119e-18
CB65 MX31/M0#g VDD#14 3.37626e-18
CB66 MX19/M0#g MX24/M0#s 1.02568e-17
RgB9 MX19/M0#g B#15 369.972412 $L=1.21 $W=0.15
RgB10 B#15 B#16 34.134449 $L=0.1645 $W=0.27
RgB11 B#16 MX21/M0#g 377.611298 $L=1.175 $W=0.15
RgB12 MX31/M0#g B#17 404.541992 $L=1.325 $W=0.15
RgB13 B#17 B#18 30.460598 $L=0.1645 $W=0.27
RgB14 B#18 B#19 21.669903 $L=0.1345 $W=0.3
RgB15 B#19 MX26/M0#g 387.246826 $L=1.205 $W=0.15
RfB16 B#20 B#21 38.023529 $L=0.505 $W=0.17
RfB17 B#21 B#22 33.882355 $L=0.45 $W=0.17
ReB18 B B#23 0.117788 $L=0.245 $W=0.26
RjB19 B#21 B#23 152.000000 $A=0.0289
RiB20 B#18 B#20 15.000000 $A=0.0289
RiB21 B#15 B#22 15.000000 $A=0.0289
*
*|NET A 6.78219e-16
*|P (A X 0 1.3950 1.7000)
*|I (MX20/M0#g MX20/M0 g X 0 0.9050 0.8000)
*|I (MX24/M0#g MX24/M0 g X 0 0.9050 3.3500)
*|S (A#8 0.9050 1.3250)
*|S (A#9 0.9050 1.1600)
*|S (A#10 0.9200 1.3250)
*|S (A#11 0.9050 1.3250)
*|S (A#12 1.3800 1.3250)
*|S (A#13 0.9200 1.3250)
CA1 MX24/M0#g VSS 3.00767e-18
CA2 MX20/M0#g VSS 1.9943e-17
CA3 A#11 VSS 1.78977e-17
CA4 A#13 VSS 9.59002e-18
CA5 A#12 VSS 1.20698e-17
CA6 A VSS 9.65687e-18
CA7 A#12 7#25 2.28826e-18
CA8 MX24/M0#g MX19/M0#d 2.17557e-18
CA9 MX24/M0#g 7#19 1.12777e-18
CA10 MX20/M0#g MX21/M0#d 1.01422e-18
CA11 A#12 7#16 7.9213e-18
CA12 A#13 7#25 1.9444e-17
CA13 MX24/M0#g 7#18 5.66933e-18
CA14 A 7#18 8.35876e-18
CA15 A#11 7#25 7.10901e-18
CA16 A#11 7#16 4.79959e-18
CA17 A#13 1#25 2.95541e-18
CA18 A#12 MX26/M0#s 2.69668e-18
CA19 MX20/M0#g 1#16 2.2383e-18
CA20 A#11 1#22 1.66916e-18
CA21 A#13 MX26/M0#s 1.59961e-18
CA22 MX24/M0#g 1#25 1.33218e-18
CA23 A#13 1#22 1.75427e-17
CA24 A#12 1#20 5.08343e-17
CA25 MX24/M0#g 1#13 7.79987e-18
CA26 A 1#25 1.85881e-17
CA27 A#12 1#22 4.65837e-17
CA28 A 1#23 6.6622e-17
CA29 A 1#20 4.75536e-17
CA30 MX20/M0#g MX26/M0#s 3.97548e-18
CA31 A 1#18 8.84497e-18
CA32 A#11 MX26/M0#s 1.08803e-17
CA33 A#11 VSS#14 2.18463e-18
CA34 A#11 VSS#8 1.15575e-18
CA35 MX20/M0#g VSS#8 3.66042e-18
CA36 MX20/M0#g VSS#14 3.77988e-18
CA37 A#11 MX21/M0#s 1.54295e-17
CA38 MX20/M0#g MX21/M0#s 6.20184e-18
CA39 A#13 VSS#14 8.99095e-18
CA40 MX24/M0#g VDD#8 4.73554e-18
CA41 MX24/M0#g MX24/M0#s 8.72526e-18
CA42 MX24/M0#g VDD 1.39314e-17
CA43 MX24/M0#g VDD#14 5.83151e-18
CA44 A#12 MX26/M0#g 3.01849e-18
CA45 A#13 B#21 2.82859e-18
CA46 A#11 B#21 6.09698e-18
CA47 A#11 B#23 7.58303e-18
CA48 A B#20 3.73612e-17
CA49 MX24/M0#g B#23 3.83231e-18
CA50 A B#23 8.41056e-17
CA51 A#13 B#23 3.49772e-17
RgA1 MX24/M0#g A#8 631.859070 $L=2.025 $W=0.15
RgA2 A#8 A#9 34.134449 $L=0.1645 $W=0.27
RgA3 A#9 MX20/M0#g 115.724632 $L=0.36 $W=0.15
RfA4 A#10 A#11 1.129412 $L=0.015 $W=0.17
ReA5 A A#12 0.160091 $L=0.375 $W=0.26
ReA6 A#12 A#13 0.214439 $L=0.46 $W=0.23
RjA7 A#10 A#13 152.000000 $A=0.0289
RiA8 A#8 A#11 15.000000 $A=0.0289
*
*|NET Y 9.46222e-16
*|P (Y X 0 2.7750 1.8400)
*|I (MX27/M0#d MX27/M0 d X 0 2.7605 1.0100)
*|I (MX27/M1#s MX27/M1 s X 0 3.0395 1.0100)
*|I (MX25/M0#d MX25/M0 d X 0 2.7605 3.0400)
*|I (MX25/M1#s MX25/M1 s X 0 3.0395 3.0400)
*|S (Y#2 2.9000 3.0400)
*|S (Y#3 2.9000 2.7650)
*|S (Y#5 2.9000 1.0100)
*|S (Y#6 2.9000 0.9350)
*|S (Y#7 2.9000 2.7650)
*|S (Y#8 2.8225 2.4400)
*|S (Y#9 2.8225 1.2595)
*|S (Y#10 2.9000 0.9350)
CE1 MX25/M0#d VSS 2.22434e-18
CE2 Y#10 VSS 1.18641e-17
CE3 Y#8 VSS 4.07764e-18
CE4 Y#6 VSS 3.06935e-18
CE5 Y#3 VSS 8.6252e-19
CE6 Y VSS 1.24932e-17
CE7 Y#3 2#33 4.63678e-18
CE8 Y#10 MX27/M1#g 3.57931e-18
CE9 Y#10 2#26 3.25413e-18
CE10 Y#6 2#30 2.97111e-18
CE11 Y#8 2#26 2.81868e-18
CE12 Y#8 MX25/M1#g 2.72915e-18
CE13 Y#8 2#29 1.55773e-16
CE14 Y#6 MX27/M0#g 1.13953e-17
CE15 Y#6 2#26 1.62225e-17
CE16 Y#10 2#30 1.05492e-16
CE17 Y#3 MX25/M1#g 1.77005e-17
CE18 Y#3 2 1.69953e-17
CE19 Y#8 2#33 7.57058e-17
CE20 Y 2#26 3.37412e-17
CE21 Y 2#33 3.87891e-17
CE22 Y#6 MX27/M1#g 1.19216e-17
CE23 Y#3 2#29 2.74076e-17
CE24 Y 2#30 7.34701e-18
CE25 Y#3 2#26 7.85816e-18
CE26 Y 2#29 5.95988e-17
CE27 Y#10 VSS#3 3.15586e-18
CE28 Y#6 VSS#4 2.44428e-18
CE29 Y#10 MX27/M0#s 1.62567e-17
CE30 Y#6 MX27/M1#d 3.81233e-17
CE31 Y#10 MX27/M1#d 1.7242e-17
CE32 Y#6 MX27/M0#s 3.58669e-17
CE33 Y#6 VSS#14 5.27101e-18
CE34 Y#10 VSS#4 5.8103e-18
CE35 Y#10 VSS#14 3.08203e-17
RfE52 Y#2 Y#3 8.481928 $L=0.275 $W=0.17
RfE53 Y#5 Y#6 2.157303 $L=0.075 $W=0.17
ReE54 Y#7 Y#8 0.105438 $L=0.3245 $W=0.385
ReE55 Y#8 Y 0.288543 $L=0.6 $W=0.26
ReE56 Y Y#9 0.278927 $L=0.58 $W=0.26
ReE57 Y#9 Y#10 0.118676 $L=0.3245 $W=0.385
RhE58 MX27/M0#d Y#5 7.500000 $A=0.0578
Rh_2_E59 MX25/M0#d Y#2 5.000000 $A=0.0867
RjE60 Y#3 Y#7 76.000000 $A=0.0578
RjE61 Y#6 Y#10 76.000000 $A=0.0578
RmwE62 MX27/M1#s MX27/M0#d 0.001000 $W=1000000
RmwE63 MX25/M1#s MX25/M0#d 0.001000 $W=1000000
*
*|NET VDD 1.16596e-15
*|P (VDD X 0 2.4150 4.1450)
*|I (MX30/M0#s MX30/M0 s X 0 2.2705 3.3500)
*|I (MX25/M0#s MX25/M0 s X 0 2.6095 3.0400)
*|I (MX25/M1#d MX25/M1 d X 0 3.1905 3.0400)
*|I (MX24/M0#s MX24/M0 s X 0 0.8295 3.3500)
*|I (MX19/M0#s MX19/M0 s X 0 0.5505 3.3500)
*|S (VDD#2 3.3300 3.0400)
*|S (VDD#3 3.4625 4.1400)
*|S (VDD#4 2.4700 4.1400)
*|S (VDD#5 1.8400 4.1400)
*|S (VDD#6 1.8400 4.1400)
*|S (VDD#8 0.6900 4.1400)
*|S (VDD#9 0.0000 4.1400)
*|S (VDD#11 2.4700 3.0400)
*|S (VDD#13 0.6900 3.3500)
*|S (VDD#14 1.8400 4.1400)
CC1 MX30/M0#s VSS 4.91634e-18
CC2 VDD#8 VSS 2.44203e-18
CC3 VDD#4 VSS 1.1877e-18
CC4 VDD#3 VSS 6.65088e-19
CC5 VDD#14 VSS 3.90989e-18
CC6 VDD#6 VSS 9.02056e-18
CC7 VDD VSS 3.11351e-18
CC8 MX30/M0#s 15 2.36416e-17
CC9 MX24/M0#s 15 1.22171e-18
CC10 VDD 15 3.71063e-18
CC11 VDD#6 15 9.61622e-18
CC12 VDD#14 15 5.6565e-18
CC13 VDD#14 7 4.40773e-18
CC14 MX30/M0#s 7#26 4.36037e-18
CC15 VDD#14 7#18 2.86077e-18
CC16 VDD#14 7#19 2.33369e-18
CC17 VDD#8 MX19/M0#d 1.97873e-18
CC18 MX24/M0#s 7 1.82834e-18
CC19 VDD#6 7#18 1.24334e-18
CC20 VDD#14 7#17 1.1688e-18
CC21 VDD#14 MX19/M0#d 7.6022e-18
CC22 VDD 7#19 3.06653e-17
CC23 VDD 7#17 1.1852e-17
CC24 VDD#9 MX19/M0#d 6.69726e-18
CC25 VDD#14 7#23 1.06891e-17
CC26 VDD#6 7 6.37069e-18
CC27 VDD MX19/M0#d 2.27913e-17
CC28 MX24/M0#s 7#19 1.57532e-17
CC29 MX30/M0#s 7#17 2.46694e-17
CC30 VDD 7#26 7.84369e-18
CC31 VDD 7 1.61541e-17
CC32 MX24/M0#s MX19/M0#d 3.5765e-17
CC33 VDD 7#23 2.94119e-17
CC34 VDD 7#18 1.68393e-17
CC35 VDD#14 2#21 5.60839e-18
CC36 MX25/M1#d 2 5.09955e-18
CC37 VDD#3 2#29 4.36694e-18
CC38 MX30/M0#s MX25/M1#g 3.80538e-18
CC39 VDD#14 MX25/M1#g 3.60809e-18
CC40 VDD#14 2 3.60809e-18
CC41 MX25/M1#d 2#33 2.53392e-17
CC42 VDD#6 2#28 7.69055e-18
CC43 VDD MX25/M1#g 1.27677e-17
CC44 MX25/M1#d 2#25 6.92863e-18
CC45 VDD#4 2 7.17149e-18
CC46 VDD#3 MX25/M1#g 7.17149e-18
CC47 MX25/M1#d MX25/M1#g 2.78892e-17
CC48 VDD#14 2#29 7.18118e-17
CC49 MX30/M0#s 2 1.89438e-17
CC50 MX25/M1#d 2#29 2.41087e-17
CC51 VDD 2#33 3.44837e-17
CC52 VDD 2 1.43576e-17
CC53 VDD#4 2#29 6.15256e-18
CC54 VDD 2#29 3.02964e-17
CC55 MX30/M0#s 2#29 5.54365e-17
CC56 VDD#6 2#21 8.59438e-18
CC57 VDD#14 2#28 3.19865e-17
CC58 VDD#14 1#13 5.60839e-18
CC59 VDD#8 1#25 5.13842e-18
CC60 MX30/M0#s 1#17 3.96039e-18
CC61 VDD#4 1 3.91389e-18
CC62 MX30/M0#s 1#25 3.65071e-18
CC63 VDD#14 1 3.37626e-18
CC64 VDD 1#23 6.34701e-18
CC65 VDD#14 1#25 2.55206e-17
CC66 VDD#8 1#13 8.59438e-18
CC67 MX30/M0#s 1 9.34575e-18
CC68 VDD 1 1.34151e-17
CC69 VDD 1#25 1.49231e-17
CC70 MX24/M0#s 1#25 8.48793e-18
CC71 MX24/M0#s 1#13 2.92002e-17
CC72 VDD#4 Y#3 3.46701e-18
CC73 VDD#3 Y#3 3.43319e-18
CC74 VDD Y#8 4.96788e-18
CC75 VDD#14 Y#3 6.05917e-18
CC76 MX30/M0#s Y#3 5.5949e-17
CC77 MX30/M0#s Y#8 1.30635e-17
CC78 MX25/M1#d Y#3 5.56595e-17
CC79 MX25/M1#d Y#8 8.10377e-18
RfC22 VDD#2 VDD#3 82.267548 $L=1.1 $W=0.17
RfC23 VDD#3 VDD#4 43.330799 $L=0.9925 $W=0.25
RfC24 VDD#4 VDD#5 31.980810 $L=0.63 $W=0.25
RfC25 VDD#5 VDD#8 58.604813 $L=1.15 $W=0.25
RfC26 VDD#8 VDD#9 35.052811 $L=0.69 $W=0.25
RfC27 VDD#4 VDD#11 76.215675 $L=1.1 $W=0.17
RfC28 VDD#8 VDD#13 52.874500 $L=0.79 $W=0.17
ReC29 VDD VDD#14 0.179688 $L=0.575 $W=0.4
Rh_1_C30 VDD#6 VDD#5 2.142857 $A=0.2023
Rh_2_C31 MX25/M1#d VDD#2 5.000000 $A=0.0867
Rh_2_C32 MX30/M0#s VDD#11 5.000000 $A=0.0867
Rh_2_C33 MX24/M0#s VDD#13 15.000000 $A=0.0289
RjC34 VDD#5 VDD#14 21.714285 $A=0.2023
RmwC35 MX25/M0#s MX30/M0#s 0.001000 $W=1000000
RmwC36 MX19/M0#s MX24/M0#s 0.001000 $W=1000000
*
*|NET 1 1.437e-15
*|I (MX26/M0#s MX26/M0 s X 0 1.2595 0.8000)
*|I (MX23/M0#g MX23/M0 g X 0 2.1950 0.8000)
*|I (MX20/M0#d MX20/M0 d X 0 0.9805 0.8000)
*|I (MX30/M0#g MX30/M0 g X 0 2.1950 3.3500)
*|I (MX24/M0#d MX24/M0 d X 0 0.9805 3.3500)
*|I (MM0#s MM0 s X 0 1.2595 3.3500)
*|S (1 2.1950 3.3500)
*|S (1#8 2.2550 1.9645)
*|S (1#9 2.2550 1.8000)
*|S (1#10 2.2550 1.6350)
*|S (1#12 1.1200 3.3500)
*|S (1#13 1.1200 3.3250)
*|S (1#15 1.1200 0.8000)
*|S (1#16 1.1200 0.5850)
*|S (1#17 2.2550 1.8000)
*|S (1#18 1.7650 1.8000)
*|S (1#19 1.7650 1.8000)
*|S (1#20 1.7650 1.6550)
*|S (1#21 1.1200 0.7295)
*|S (1#22 1.1200 0.5850)
*|S (1#23 1.7650 1.9445)
*|S (1#24 1.1200 3.1800)
*|S (1#25 1.1200 3.3250)
CF1 MX23/M0#g VSS 1.74894e-17
CF2 MX26/M0#s VSS 3.09519e-18
CF3 1#17 VSS 1.52672e-17
CF4 1#25 VSS 8.7446e-18
CF5 1#23 VSS 3.22112e-18
CF6 1#22 VSS 1.32597e-17
CF7 1#20 VSS 8.11089e-18
CF8 1#16 VSS 5.10153e-18
CF9 1#13 VSS 2.28374e-19
CF10 1#18 VSS 1.44677e-17
CF11 1 VSS 1.31553e-17
CF12 MX23/M0#g 13 6.54489e-18
CF13 1#20 13 6.76667e-18
CF14 1 7#17 6.52289e-18
CF15 MX23/M0#g 7#15 5.67881e-18
CF16 1#25 MX19/M0#d 5.36932e-18
CF17 1#18 7#15 5.15695e-18
CF18 1#23 7#23 4.03932e-18
CF19 1#17 7#17 3.95359e-18
CF20 1#25 7#17 3.93502e-18
CF21 1#18 7#17 3.69227e-18
CF22 1#20 7#25 2.98256e-18
CF23 1#18 7#29 2.43995e-18
CF24 1#22 7#16 2.10672e-18
CF25 1#25 7#23 2.03499e-18
CF26 MX23/M0#g 7#29 1.75142e-18
CF27 1#18 7#18 1.69908e-18
CF28 1#18 7#23 1.46608e-18
CF29 1 7#26 1.44685e-18
CF30 1#22 MX21/M0#d 1.22683e-18
CF31 MX26/M0#s 7#25 1.1292e-18
CF32 1#22 7#14 9.91447e-19
CF33 1#18 7#16 1.3789e-17
CF34 1#23 7#18 1.65491e-17
CF35 1#13 7 7.79987e-18
CF36 1#13 7#18 1.39291e-17
CF37 1#17 7#15 1.39615e-17
CF38 1#23 7#26 7.46449e-17
CF39 1#25 7#18 1.94027e-17
CF40 1#23 7#29 1.2203e-17
CF41 1#20 7#16 2.08254e-17
CF42 1#22 7#25 1.94561e-17
CF43 1#25 7 7.56992e-18
CF44 1#20 7#29 9.17985e-17
CF45 1#25 7#19 8.3995e-18
CF46 1#25 7#26 1.10088e-17
CF47 1#17 7#29 2.0388e-17
CF48 1#23 7#17 9.24236e-18
CF49 1 2#29 4.76487e-18
CF50 MX23/M0#g 2#30 4.71493e-18
CF51 1#13 2#28 3.51205e-18
CF52 1#16 2#30 2.53176e-18
CF53 1#22 2#24 2.23336e-18
CF54 1#23 2#28 1.88896e-18
CF55 1 2#21 1.56802e-18
CF56 1#25 2 1.04434e-18
CF57 1#17 2#30 1.04144e-18
CF58 1#25 2#29 9.82155e-18
CF59 1#25 2#28 7.62566e-17
CF60 1#13 2#21 2.81002e-17
CF61 MX26/M0#s MX26/M0#d 1.35111e-17
CF62 1#16 2#24 8.84775e-18
CF63 1#22 2#30 5.99003e-17
CF64 1#20 2#30 3.46847e-17
CF65 1#22 MX26/M0#d 1.52325e-17
CF66 1#25 2#21 1.24806e-17
CF67 1#17 2#29 1.31416e-17
CF68 1#17 2#26 1.87176e-17
CF69 1#22 VSS#8 5.10654e-18
CF70 1#16 VSS#14 3.87915e-18
CF71 1#20 MX27/M0#s 3.86385e-18
CF72 1#17 MX27/M0#s 3.44331e-18
CF73 MX23/M0#g VSS#4 3.13198e-18
CF74 MX23/M0#g VSS#14 2.31316e-18
CF75 1#16 MX21/M0#s 9.70851e-18
CF76 MX23/M0#g MX27/M0#s 6.89747e-18
CF77 1#22 MX21/M0#s 1.11218e-17
CF78 1#16 VSS#8 8.8834e-18
CF79 1#22 VSS#14 4.16355e-17
CF80 MX26/M0#s MX21/M0#s 1.47221e-17
RgF64 1 1#8 445.091278 $L=1.385 $W=0.15
RgF65 1#8 1#9 38.857975 $L=0.1645 $W=0.27
RgF66 1#9 1#10 29.410927 $L=0.1645 $W=0.27
RgF67 1#10 MX23/M0#g 268.357941 $L=0.835 $W=0.15
RfF68 1#12 1#13 1.882353 $L=0.025 $W=0.17
RfF69 1#15 1#16 16.188236 $L=0.215 $W=0.17
RfF70 1#17 1#18 36.894119 $L=0.49 $W=0.17
ReF71 1#19 1#20 0.078668 $L=0.1445 $W=0.23
ReF72 1#20 1#21 1.251561 $L=1.525 $W=0.14
ReF73 1#21 1#22 0.088170 $L=0.1445 $W=0.23
ReF74 1#19 1#23 0.078668 $L=0.1445 $W=0.23
ReF75 1#23 1#24 1.528347 $L=1.835 $W=0.14
ReF76 1#24 1#25 0.088170 $L=0.1445 $W=0.23
RhF77 MX26/M0#s 1#15 15.000000 $A=0.0289
Rh_2_F78 MX24/M0#d 1#12 15.000000 $A=0.0289
RjF79 1#18 1#19 152.000000 $A=0.0289
RjF80 1#16 1#22 152.000000 $A=0.0289
RjF81 1#13 1#25 152.000000 $A=0.0289
RiF82 1#9 1#17 15.000000 $A=0.0289
RmwF83 MX20/M0#d MX26/M0#s 0.001000 $W=1000000
RmwF84 MX30/M0#g 1 0.001000 $W=1000000
RmwF85 MM0#s MX24/M0#d 0.001000 $W=1000000
*
*Instance Section
*
MX27/M0	MX27/M0#d	MX27/M0#g	MX27/M0#s	VSS	nfet_01v8
+ L=1.5e-07	W=8.4e-07
MX27/M1	MX27/M1#d	MX27/M1#g	MX27/M1#s	VSS	nfet_01v8
+ L=1.5e-07	W=8.4e-07
MX26/M0	MX26/M0#d	MX26/M0#g	MX26/M0#s	VSS	nfet_01v8
+ L=1.5e-07	W=4.2e-07
MX23/M0	MX23/M0#d	MX23/M0#g	MX23/M0#s	VSS	nfet_01v8
+ L=1.5e-07	W=4.2e-07
MX22/M0	MX22/M0#d	MX22/M0#g	MX22/M0#s	VSS	nfet_01v8
+ L=1.5e-07	W=4.2e-07
MX21/M0	MX21/M0#d	MX21/M0#g	MX21/M0#s	VSS	nfet_01v8
+ L=1.5e-07	W=4.2e-07
MX20/M0	MX20/M0#d	MX20/M0#g	MX20/M0#s	VSS	nfet_01v8
+ L=1.5e-07	W=4.2e-07
MX31/M0	MX31/M0#d	MX31/M0#g	MX31/M0#s	VDD	pfet_01v8_hvt
+ L=1.5e-07	W=6.2e-07
MX30/M0	MX30/M0#d	MX30/M0#g	MX30/M0#s	VDD	pfet_01v8_hvt
+ L=1.5e-07	W=6.2e-07
MX25/M0	MX25/M0#d	MX25/M0#g	MX25/M0#s	VDD	pfet_01v8_hvt
+ L=1.5e-07	W=1.24e-06
MX25/M1	MX25/M1#d	MX25/M1#g	MX25/M1#s	VDD	pfet_01v8_hvt
+ L=1.5e-07	W=1.24e-06
MX24/M0	MX24/M0#d	MX24/M0#g	MX24/M0#s	VDD	pfet_01v8_hvt
+ L=1.5e-07	W=6.2e-07
MX19/M0	MX19/M0#d	MX19/M0#g	MX19/M0#s	VDD	pfet_01v8_hvt
+ L=1.5e-07	W=6.2e-07
MM0	MM0#d	MM0#g	MM0#s	VDD	pfet_01v8_hvt	L=1.5e-07
+ W=6.2e-07
.ENDS
