*
*|DSPF 1.5
*
*|DATE "Fri Feb 28 11:59:29 2025"
*|VENDOR "Cadence Design Systems"
*|PROGRAM "Cadence Quantus Extraction"
*|VERSION "22.1.0-p089 Linux 64 bit - (Thu Jan 19 11:47:08 PST 2023)"
*|DESIGN "XNOR2X2_LP"
*|DIVIDER /
*|DELIMITER #
*|DeviceFingerDelim "@"
*|BUSBIT []
*|GLOBAL_TEMPERATURE 25
*|OPERATING_TEMPERATURE 25
** QRC_TECH_DIR /vols/wfo_devel/projects/reference_SKY130/tech/sky130_release_0.0.4/quantus/extraction/typical 
** HIERARCHICAL_SPLIT_PINS_DELIMITER '%'
** caps2d version: 10
*
.SUBCKT  XNOR2X2_LP A B VDD VSS Y
*
*Net Section
*
*|GROUND_NET VSS
*
*|NET VDD 1.04949e-15
*|P (VDD X 0 1.6500 4.1450)
*|I (MX23/M0#s MX23/M0 s X 0 2.6095 3.0400)
*|I (MX15/M0#s MX15/M0 s X 0 0.5505 3.3900)
*|I (MM0#s MM0 s X 0 0.8295 3.3900)
*|I (MM1#d MM1 d X 0 2.2705 3.3900)
*|S (VDD#1 3.6795 4.1400)
*|S (VDD#2 2.4700 4.1400)
*|S (VDD#3 1.8400 4.1400)
*|S (VDD#4 1.8400 4.1400)
*|S (VDD#6 0.6900 4.1400)
*|S (VDD#7 0.0000 4.1400)
*|S (VDD#9 2.4700 3.0400)
*|S (VDD#11 0.6900 3.3900)
*|S (VDD#12 1.8400 4.1400)
CC1 MX15/M0#s VSS 2.91813e-18
CC2 MX23/M0#s VSS 3.03478e-18
CC3 VDD#12 VSS 1.84218e-18
CC4 VDD#6 VSS 2.20174e-18
CC5 VDD#2 VSS 6.87172e-19
CC6 VDD#1 VSS 3.45496e-18
CC7 VDD#3 VSS 5.49178e-18
CC8 VDD VSS 1.99886e-18
CC9 MX15/M0#s 17 1.22171e-18
CC10 VDD#12 17 5.36955e-18
CC11 MX23/M0#s 17 2.55223e-17
CC12 VDD 17 8.46911e-18
CC13 VDD#3 17 9.62281e-18
CC14 VDD 11#22 5.13123e-18
CC15 VDD#12 11 5.02179e-18
CC16 VDD#12 MX25/M0#s 4.60736e-18
CC17 VDD#2 11#23 3.04606e-18
CC18 VDD#2 11 5.35471e-18
CC19 VDD#12 11#24 5.25391e-17
CC20 VDD#3 11#24 7.50026e-18
CC21 VDD 11#23 1.22824e-17
CC22 VDD#3 MX25/M0#s 8.56361e-18
CC23 VDD#12 11#23 4.3193e-17
CC24 MX23/M0#s 11#22 1.31703e-17
CC25 MX23/M0#s 11 2.13853e-17
CC26 VDD 11 1.10372e-17
CC27 MX23/M0#s 11#23 5.08535e-17
CC28 VDD 2#20 3.89171e-18
CC29 MX15/M0#s 2#16 3.56787e-18
CC30 VDD#12 2 2.71366e-18
CC31 VDD#12 2#16 2.04818e-18
CC32 VDD#6 MX15/M0#d 1.97873e-18
CC33 VDD#3 2 5.74347e-18
CC34 VDD#12 MX15/M0#d 8.52956e-18
CC35 VDD#7 MX15/M0#d 6.69726e-18
CC36 MX15/M0#s MX15/M0#d 3.41345e-17
CC37 VDD 2 1.24035e-17
CC38 VDD MX15/M0#d 6.80143e-17
CC39 VDD 2#16 2.74454e-17
CC40 VDD#12 1#23 5.21658e-18
CC41 VDD#12 MX25/M0#d 4.46784e-18
CC42 MX15/M0#s 1#23 3.57891e-18
CC43 VDD#3 1 3.06005e-18
CC44 VDD#12 1 3.01566e-18
CC45 VDD#2 1 2.65989e-18
CC46 VDD#3 1#23 1.46713e-18
CC47 VDD 1#23 2.48301e-17
CC48 VDD 1#22 1.54309e-17
CC49 MX23/M0#s 1 8.39837e-18
CC50 MX15/M0#s 1#24 7.03446e-18
CC51 MX15/M0#s MX25/M0#d 2.32085e-17
CC52 MX23/M0#s 1#18 1.23849e-17
CC53 VDD#6 MX25/M0#d 8.56632e-18
CC54 VDD#12 1#24 3.09065e-17
CC55 VDD#6 1#24 5.42458e-18
CC56 VDD 1#18 1.18848e-17
CC57 MX23/M0#s 1#22 1.4132e-17
CC58 VDD 1 1.38306e-17
CC59 VDD Y 3.72738e-18
CC60 VDD#12 Y#3 8.44767e-18
CC61 VDD#12 Y#8 2.19599e-17
CC62 MX23/M0#s Y#8 6.99062e-18
CC63 VDD Y#8 5.6842e-17
CC64 VDD#2 Y#8 4.03965e-18
CC65 VDD#2 Y#3 8.70981e-18
CC66 VDD Y#3 1.85076e-17
CC67 MX23/M0#s Y#3 5.45957e-17
RfC24 VDD#1 VDD#2 61.651215 $L=1.2095 $W=0.25
RfC25 VDD#2 VDD#3 31.980810 $L=0.63 $W=0.25
RfC26 VDD#3 VDD#6 58.604813 $L=1.15 $W=0.25
RfC27 VDD#6 VDD#7 35.052811 $L=0.69 $W=0.25
RfC28 VDD#2 VDD#9 76.215675 $L=1.1 $W=0.17
RfC29 VDD#6 VDD#11 49.862736 $L=0.75 $W=0.17
ReC30 VDD#12 VDD 0.059375 $L=0.19 $W=0.4
Rh_1_C31 VDD#4 VDD#3 2.142857 $A=0.2023
Rh_2_C32 MX23/M0#s VDD#9 5.000000 $A=0.0867
Rh_2_C33 MX15/M0#s VDD#11 15.000000 $A=0.0289
RjC34 VDD#3 VDD#12 21.714285 $A=0.2023
RmwC35 MM0#s MX15/M0#s 0.001000 $W=1000000
RmwC36 MM1#d MX23/M0#s 0.001000 $W=1000000
*
*|NET 16 1.04633e-16
*|I (MX21/M0#d MX21/M0 d X 0 2.1195 0.7300)
*|I (MX18/M0#s MX18/M0 s X 0 1.8405 0.7300)
*|S (16 1.9800 0.7350)
CI1 16 VSS 1.2229e-17
CI2 16 VSS#3 5.8308e-18
CI3 16 MX22/M0#s 1.79258e-17
CI4 16 VSS#12 5.64794e-18
RmwI118 MX21/M0#d 16 0.001000 $W=1000000
RmwI119 MX18/M0#s 16 0.001000 $W=1000000
*
*|NET 17 1.49794e-16
*|I (MX24/M0#s MX24/M0 s X 0 1.8405 3.3900)
*|I (MM1#s MM1 s X 0 2.1195 3.3900)
*|S (17 1.9800 3.4000)
CI5 17 VSS 1.07557e-17
RmwI120 MX24/M0#s 17 0.001000 $W=1000000
RmwI121 MM1#s 17 0.001000 $W=1000000
*
*|NET B 9.20958e-16
*|P (B X 0 0.4750 1.4650)
*|I (MX17/M0#g MX17/M0 g X 0 1.3350 0.7300)
*|I (MX16/M0#g MX16/M0 g X 0 0.4750 0.7300)
*|I (MX24/M0#g MX24/M0 g X 0 1.7650 3.3900)
*|I (MX15/M0#g MX15/M0 g X 0 0.4750 3.3900)
*|S (B#15 0.4150 1.4945)
*|S (B#16 0.4150 1.3300)
*|S (B#17 0.4150 1.1650)
*|S (B#18 1.3350 1.1650)
*|S (B#19 1.3350 1.3300)
*|S (B#20 1.7650 2.7545)
*|S (B#21 1.7650 2.5900)
*|S (B#22 1.7650 2.5900)
*|S (B#23 1.3350 1.3300)
*|S (B#24 0.4600 1.3300)
*|S (B#25 0.4150 1.3300)
*|S (B#26 0.4600 1.3300)
CB1 MX24/M0#g VSS 1.03332e-17
CB2 MX16/M0#g VSS 1.42688e-17
CB3 MX17/M0#g VSS 1.36906e-17
CB4 B#26 VSS 2.02486e-17
CB5 B#25 VSS 2.22624e-17
CB6 B#23 VSS 3.76038e-17
CB7 B#22 VSS 8.52263e-18
CB8 B VSS 2.95439e-17
CB9 MX17/M0#g MX18/M0#d 4.55676e-18
CB10 B#23 11#21 2.94543e-18
CB11 B#22 11 2.87899e-18
CB12 B#23 11#18 2.68059e-18
CB13 B#23 MX22/M0#g 1.68811e-18
CB14 MX24/M0#g 11#24 1.66842e-18
CB15 B#22 11#22 1.64561e-18
CB16 MX24/M0#g MX25/M0#s 6.79692e-18
CB17 B#23 MX18/M0#d 8.7234e-18
CB18 B#23 11#17 7.52388e-18
CB19 B#22 MX15/M0#d 3.53109e-18
CB20 MX16/M0#g 2#13 3.07125e-18
CB21 MX15/M0#g 2#16 2.88455e-18
CB22 MX15/M0#g MX15/M0#d 1.01888e-17
CB23 B 2#20 2.74747e-17
CB24 B#22 2#20 6.53114e-18
CB25 B#23 2#20 3.67234e-17
CB26 B#25 2#20 8.46618e-18
CB27 B#26 MX16/M0#d 1.29253e-17
CB28 B#25 2#16 1.46947e-17
CB29 B#22 2#16 3.13895e-17
CB30 B#25 MX16/M0#d 1.19056e-17
CB31 B#26 2#19 8.56738e-17
CB32 MX16/M0#g MX16/M0#d 5.05602e-18
CB33 B#23 MX18/M0#g 7.05512e-18
CB34 B 2#16 4.04142e-17
CB35 B#25 2#19 2.01442e-17
CB36 B#23 2#16 1.205e-17
CB37 B#26 2#20 1.17821e-17
CB38 B#23 1#23 2.67376e-18
CB39 MX15/M0#g MX25/M0#d 1.83122e-18
CB40 MX17/M0#g 1#20 1.73415e-18
CB41 B#22 1#23 1.30121e-17
CB42 MX17/M0#g 1#14 6.4795e-18
CB43 B#23 1#20 2.61843e-17
CB44 B#22 1#18 3.17062e-17
CB45 B#23 1#14 1.3645e-17
CB46 B#22 1#22 2.52937e-17
CB47 B#23 1#22 2.03724e-17
CB48 MX16/M0#g VSS#6 4.22722e-18
CB49 B#26 MX26/M0#s 4.16634e-18
CB50 B#23 VSS#3 3.0276e-18
CB51 B#23 VSS#12 2.21433e-18
CB52 MX17/M0#g VSS#12 1.959e-18
CB53 MX16/M0#g VSS#12 1.79734e-18
CB54 B#25 VSS#6 1.30382e-18
CB55 MX16/M0#g MX26/M0#s 7.21297e-18
CB56 B#25 MX26/M0#s 1.62774e-17
CB57 MX17/M0#g VSS#3 5.66146e-18
CB58 B#23 MX22/M0#s 4.75661e-18
CB59 B VDD 3.8583e-18
CB60 MX15/M0#g VDD#6 3.48374e-18
CB61 MX24/M0#g VDD#12 1.95012e-18
CB62 MX24/M0#g MX23/M0#s 1.60056e-18
CB63 MX15/M0#g VDD 1.18096e-17
CB64 MX24/M0#g VDD 1.37264e-17
CB65 MX24/M0#g VDD#3 6.31085e-18
CB66 B MX15/M0#s 5.41212e-18
CB67 MX15/M0#g VDD#12 5.54472e-18
CB68 B#22 MX23/M0#s 9.16225e-18
CB69 B#22 VDD 2.27809e-17
CB70 MX15/M0#g MX15/M0#s 9.07616e-18
RgB8 MX15/M0#g B#15 608.971252 $L=1.895 $W=0.15
RgB9 B#15 B#16 38.857975 $L=0.1645 $W=0.27
RgB10 B#16 B#17 29.410927 $L=0.1645 $W=0.27
RgB11 B#17 MX16/M0#g 139.824631 $L=0.435 $W=0.15
RgB12 MX17/M0#g B#18 139.824631 $L=0.435 $W=0.15
RgB13 B#18 B#19 34.134449 $L=0.1645 $W=0.27
RgB14 MX24/M0#g B#20 204.091293 $L=0.635 $W=0.15
RgB15 B#20 B#21 34.134449 $L=0.1645 $W=0.27
RfB16 B#22 B#23 121.598778 $L=1.69 $W=0.17
RfB17 B#23 B#24 65.882355 $L=0.875 $W=0.17
RfB18 B#24 B#25 3.388236 $L=0.045 $W=0.17
ReB19 B B#26 0.064904 $L=0.135 $W=0.26
RjB20 B#24 B#26 152.000000 $A=0.0289
RiB21 B#21 B#22 15.000000 $A=0.0289
RiB22 B#19 B#23 15.000000 $A=0.0289
RiB23 B#16 B#25 15.000000 $A=0.0289
*
*|NET VSS 1.2752e-15
*|P (VSS X 0 1.6600 0.0050)
*|I (MX26/M0#s MX26/M0 s X 0 0.8295 0.7300)
*|I (MX22/M0#s MX22/M0 s X 0 2.6095 0.9400)
*|I (MX21/M0#s MX21/M0 s X 0 2.2705 0.7300)
*|I (MX16/M0#s MX16/M0 s X 0 0.5505 0.7300)
*|S (VSS#1 3.6795 0.0000)
*|S (VSS#2 2.4700 0.0000)
*|S (VSS#3 1.8400 0.0000)
*|S (VSS#4 1.8400 0.0000)
*|S (VSS#6 0.6900 0.0000)
*|S (VSS#7 0.0000 0.0000)
*|S (VSS#9 2.4700 0.9400)
*|S (VSS#11 0.6900 0.7300)
*|S (VSS#12 1.8400 0.0000)
RfD37 VSS#1 VSS#2 61.651215 $L=1.2095 $W=0.25
RfD38 VSS#2 VSS#3 31.980810 $L=0.63 $W=0.25
RfD39 VSS#3 VSS#6 58.604813 $L=1.15 $W=0.25
RfD40 VSS#6 VSS#7 35.052811 $L=0.69 $W=0.25
RfD41 VSS#2 VSS#9 64.168617 $L=0.94 $W=0.17
RfD42 VSS#6 VSS#11 48.356857 $L=0.73 $W=0.17
ReD43 VSS#12 VSS 0.056250 $L=0.18 $W=0.4
RhD44 MX22/M0#s VSS#9 7.500000 $A=0.0578
RhD45 MX26/M0#s VSS#11 15.000000 $A=0.0289
Rh_3_D46 VSS#4 VSS#3 2.142857 $A=0.2023
RjD47 VSS#3 VSS#12 21.714285 $A=0.2023
RmwD48 MX21/M0#s MX22/M0#s 0.001000 $W=1000000
RmwD49 MX16/M0#s MX26/M0#s 0.001000 $W=1000000
*
*|NET A 4.28427e-16
*|P (A X 0 0.9350 1.9950)
*|I (MX26/M0#g MX26/M0 g X 0 0.9050 0.7300)
*|I (MM0#g MM0 g X 0 0.9050 3.3900)
*|S (A#8 0.9050 2.5300)
*|S (A#9 0.9050 2.3650)
*|S (A#10 0.9200 2.5300)
*|S (A#11 0.9050 2.5300)
*|S (A#12 0.9200 2.5300)
CA1 MM0#g VSS 3.32733e-18
CA2 MX26/M0#g VSS 1.8548e-17
CA3 A#12 VSS 1.38934e-19
CA4 A#11 VSS 1.31335e-18
CA5 A VSS 4.71299e-18
CA6 MM0#g MX15/M0#d 1.92515e-18
CA7 A#11 2#20 1.61641e-18
CA8 MX26/M0#g MX16/M0#d 1.01206e-18
CA9 A 2#20 8.85899e-17
CA10 A#12 2#16 4.55253e-18
CA11 A#11 MX15/M0#d 1.2522e-17
CA12 MX26/M0#g 2#19 3.13577e-18
CA13 A#12 MX15/M0#d 1.26769e-17
CA14 A#11 2#16 1.98508e-17
CA15 A 2#16 2.93802e-17
CA16 MM0#g 1#24 1.54521e-18
CA17 A#12 MX25/M0#d 1.48733e-18
CA18 A#11 1#22 1.22424e-18
CA19 A#12 1#23 1.66263e-17
CA20 A#11 1#23 3.67154e-18
CA21 MM0#g MX25/M0#d 6.80914e-18
CA22 A#11 MX25/M0#d 4.30484e-18
CA23 MX26/M0#g 1#14 5.31738e-18
CA24 A#12 1#22 1.3769e-17
CA25 MX26/M0#g VSS#6 4.20835e-18
CA26 MX26/M0#g MX26/M0#s 6.23672e-18
CA27 A#11 VDD#12 1.90649e-18
CA28 A#12 MX23/M0#s 1.30687e-18
CA29 A#12 VDD#6 1.14849e-18
CA30 MM0#g MX15/M0#s 7.72091e-18
CA31 MM0#g VDD#6 4.78939e-18
CA32 MM0#g VDD#12 4.34773e-18
CA33 A#11 MX15/M0#s 8.18275e-18
CA34 A#11 VDD 1.43222e-17
CA35 A#12 VDD#12 8.24306e-18
CA36 A#12 VDD 1.27852e-17
CA37 MM0#g VDD 1.40094e-17
CA38 A#12 B#22 8.07591e-18
CA39 A#11 B#22 7.09121e-18
CA40 MX26/M0#g B#23 4.49251e-18
CA41 A B#25 2.82223e-18
CA42 A B#23 5.03999e-18
CA43 A B 5.36406e-17
RgA1 MM0#g A#8 257.505737 $L=0.86 $W=0.15
RgA2 A#8 A#9 34.134449 $L=0.1645 $W=0.27
RgA3 A#9 MX26/M0#g 525.424622 $L=1.635 $W=0.15
RfA4 A#10 A#11 1.129412 $L=0.015 $W=0.17
ReA5 A A#12 0.257212 $L=0.535 $W=0.26
RjA6 A#10 A#12 152.000000 $A=0.0289
RiA7 A#8 A#11 15.000000 $A=0.0289
*
*|NET 2 1.28136e-15
*|I (MX18/M0#g MX18/M0 g X 0 1.7650 0.7300)
*|I (MX16/M0#d MX16/M0 d X 0 0.3995 0.7300)
*|I (MX25/M0#g MX25/M0 g X 0 1.3350 3.3900)
*|I (MX15/M0#d MX15/M0 d X 0 0.3995 3.3900)
*|S (2 1.3350 3.3900)
*|S (2#8 1.3650 1.8100)
*|S (2#9 1.3350 2.0500)
*|S (2#10 1.3350 2.2145)
*|S (2#12 0.2600 0.7300)
*|S (2#13 0.2600 0.5350)
*|S (2#15 0.2600 3.3900)
*|S (2#16 1.3350 2.0500)
*|S (2#17 1.4150 2.0500)
*|S (2#18 0.2600 0.5350)
*|S (2#19 0.3745 0.6100)
*|S (2#20 1.4150 1.9050)
*|S (2#21 1.4150 2.0500)
CG1 MX15/M0#d VSS 2.0943e-18
CG2 MX16/M0#d VSS 9.2538e-18
CG3 MX18/M0#g VSS 2.37596e-17
CG4 2#20 VSS 2.27411e-17
CG5 2#19 VSS 4.15067e-17
CG6 2#16 VSS 2.59564e-17
CG7 2#13 VSS 5.30156e-18
CG8 2 VSS 6.08036e-18
CG9 MX18/M0#g MX18/M0#d 5.30007e-18
CG10 2#16 MX25/M0#s 1.85431e-18
CG11 MX18/M0#g 11#18 1.65362e-18
CG12 2#20 11#17 1.60151e-18
CG13 2 MX25/M0#s 6.79692e-18
CG14 2#13 VSS#12 3.80303e-18
CG15 2#19 VSS#7 3.24073e-18
CG16 MX18/M0#g VSS#12 2.96842e-18
CG17 2#13 VSS#6 2.36819e-18
CG18 2#19 MX22/M0#s 1.82339e-18
CG19 2#20 VSS#12 1.76959e-18
CG20 2#13 VSS#7 8.01542e-18
CG21 2#13 MX26/M0#s 9.06159e-18
CG22 2#19 VSS#6 5.57955e-18
CG23 MX18/M0#g VSS#3 5.66146e-18
CG24 MX16/M0#d MX26/M0#s 1.35641e-17
CG25 2#19 MX26/M0#s 3.67221e-17
CG26 2#19 VSS#12 7.86185e-17
RgG80 MX18/M0#g 2#8 434.521698 $L=1.48 $W=0.15
RgG81 2#8 2#9 45.922066 $L=0.24 $W=0.27
RgG82 2#9 2#10 34.134449 $L=0.1645 $W=0.27
RgG83 2#10 2 377.611298 $L=1.175 $W=0.15
RfG84 2#12 2#13 14.682353 $L=0.195 $W=0.17
RfG85 2#15 2#16 176.187027 $L=2.415 $W=0.17
RfG86 2#16 2#17 3.103030 $L=0.08 $W=0.33
ReG87 2#18 2#19 0.076068 $L=0.1145 $W=0.29
ReG88 2#19 2#20 1.888339 $L=2.3 $W=0.14
ReG89 2#20 2#21 0.088170 $L=0.1445 $W=0.23
RhG90 MX16/M0#d 2#12 15.000000 $A=0.0289
Rh_2_G91 MX15/M0#d 2#15 15.000000 $A=0.0289
RjG92 2#13 2#18 152.000000 $A=0.0289
RjG93 2#17 2#21 152.000000 $A=0.0289
RiG94 2#9 2#16 15.000000 $A=0.0289
RmwG95 MX25/M0#g 2 0.001000 $W=1000000
*
*|NET 11 1.56022e-15
*|I (MX22/M0#g MX22/M0 g X 0 2.6850 0.9400)
*|I (MX18/M0#d MX18/M0 d X 0 1.6895 0.7300)
*|I (MX17/M0#d MX17/M0 d X 0 1.4105 0.7300)
*|I (MX25/M0#s MX25/M0 s X 0 1.4105 3.3900)
*|I (MX24/M0#d MX24/M0 d X 0 1.6895 3.3900)
*|I (MX23/M0#g MX23/M0 g X 0 2.6850 3.0400)
*|S (11 2.6850 3.0400)
*|S (11#8 2.6450 1.6350)
*|S (11#9 2.6450 1.5000)
*|S (11#10 1.5500 3.5100)
*|S (11#12 1.5500 3.3900)
*|S (11#13 1.5500 0.7550)
*|S (11#15 1.5500 0.7300)
*|S (11#16 2.6450 1.6350)
*|S (11#17 2.5150 1.6350)
*|S (11#18 1.5500 0.7550)
*|S (11#19 2.5450 0.7550)
*|S (11#20 2.5150 1.4900)
*|S (11#21 2.5150 1.6350)
*|S (11#22 2.5150 1.7795)
*|S (11#23 2.5450 3.4800)
*|S (11#24 1.6645 3.5100)
*|S (11#25 1.5500 3.5100)
CH1 MX25/M0#s VSS 4.23697e-18
CH2 MX18/M0#d VSS 5.73245e-18
CH3 MX22/M0#g VSS 1.24403e-17
CH4 11#24 VSS 3.49731e-18
CH5 11#23 VSS 5.36552e-18
CH6 11#22 VSS 8.45832e-18
CH7 11#21 VSS 3.68799e-18
CH8 11#18 VSS 3.11168e-18
CH9 11#19 VSS 3.747e-18
CH10 11#17 VSS 1.90944e-17
CH11 11 VSS 6.39872e-19
CH12 11#18 16 1.50195e-17
CH13 11#19 16 7.26839e-18
CH14 MX22/M0#g 16 2.37951e-18
CH15 11 17 3.08978e-18
CH16 MX18/M0#d 16 1.78125e-17
CH17 11#24 17 1.44021e-17
CH18 MX25/M0#s 17 2.60374e-17
CH19 11#23 17 8.26866e-18
CH20 MX18/M0#d VSS#12 5.16615e-18
CH21 MX22/M0#g VSS#2 4.97313e-18
CH22 MX22/M0#g VSS#12 4.94256e-18
CH23 11#19 VSS#2 3.33404e-18
CH24 11#17 VSS#12 2.36002e-18
CH25 11#19 MX22/M0#s 3.62021e-17
CH26 11#19 VSS#12 3.20142e-17
CH27 11#18 VSS#12 3.79082e-17
CH28 11#21 MX22/M0#s 1.29349e-17
CH29 MX22/M0#g MX22/M0#s 1.48147e-17
CH30 11#17 MX22/M0#s 1.87332e-17
CH31 MX18/M0#d VSS#3 8.9645e-18
CH32 11#18 VSS#3 8.31462e-18
RgH96 11 11#8 433.743408 $L=1.405 $W=0.15
RgH97 11#8 11#9 25.613562 $L=0.1345 $W=0.33
RgH98 11#9 MX22/M0#g 179.983185 $L=0.56 $W=0.15
RfH99 11#10 11#12 9.035295 $L=0.12 $W=0.17
RfH100 11#13 11#15 1.882353 $L=0.025 $W=0.17
RfH101 11#16 11#17 9.788236 $L=0.13 $W=0.17
ReH102 11#18 11#19 0.530518 $L=0.995 $W=0.23
ReH103 11#19 11#20 0.491970 $L=0.735 $W=0.17
ReH104 11#20 11#21 0.087429 $L=0.1445 $W=0.23
ReH105 11#21 11#22 0.078668 $L=0.1445 $W=0.23
ReH106 11#22 11#23 1.201529 $L=1.7 $W=0.17
ReH107 11#23 11#24 0.468125 $L=0.88 $W=0.23
ReH108 11#24 11#25 0.053985 $L=0.1145 $W=0.29
RhH109 MX18/M0#d 11#15 15.000000 $A=0.0289
Rh_2_H110 MX25/M0#s 11#12 15.000000 $A=0.0289
RjH111 11#13 11#18 152.000000 $A=0.0289
RjH112 11#17 11#21 152.000000 $A=0.0289
RjH113 11#10 11#25 152.000000 $A=0.0289
RiH114 11#8 11#16 15.000000 $A=0.0289
RmwH115 MX17/M0#d MX18/M0#d 0.001000 $W=1000000
RmwH116 MX24/M0#d MX25/M0#s 0.001000 $W=1000000
RmwH117 MX23/M0#g 11 0.001000 $W=1000000
*
*|NET 1 1.40682e-15
*|I (MX26/M0#d MX26/M0 d X 0 0.9805 0.7300)
*|I (MX21/M0#g MX21/M0 g X 0 2.1950 0.7300)
*|I (MX17/M0#s MX17/M0 s X 0 1.2595 0.7300)
*|I (MX25/M0#d MX25/M0 d X 0 1.2595 3.3900)
*|I (MM0#d MM0 d X 0 0.9805 3.3900)
*|I (MM1#g MM1 g X 0 2.1950 3.3900)
*|S (1 2.1950 3.3900)
*|S (1#8 2.2550 2.3095)
*|S (1#9 2.2550 2.1450)
*|S (1#10 2.2550 1.9800)
*|S (1#11 1.1200 3.5100)
*|S (1#13 1.1200 3.3900)
*|S (1#14 1.1250 0.7850)
*|S (1#16 1.1200 0.7300)
*|S (1#17 2.2550 2.1450)
*|S (1#18 2.1250 2.1450)
*|S (1#19 1.1250 0.7850)
*|S (1#20 1.1250 1.0950)
*|S (1#21 2.1250 2.1450)
*|S (1#22 2.1250 2.2595)
*|S (1#23 1.1200 3.0600)
*|S (1#24 1.1200 3.5100)
CF1 MX25/M0#d VSS 1.40372e-18
CF2 MX21/M0#g VSS 1.52084e-17
CF3 1#24 VSS 4.81004e-18
CF4 1#23 VSS 7.51141e-18
CF5 1#22 VSS 6.37857e-18
CF6 1#19 VSS 2.3085e-18
CF7 1#20 VSS 2.63451e-17
CF8 1#14 VSS 5.56944e-18
CF9 1#18 VSS 1.6161e-17
CF10 1 VSS 2.44625e-18
CF11 1#22 17 1.26001e-17
CF12 1#23 16 1.62469e-18
CF13 1#18 17 2.25653e-18
CF14 MX21/M0#g 16 7.41019e-18
CF15 1 17 9.13161e-18
CF16 1#20 17 2.17113e-18
CF17 1#19 16 5.54371e-19
CF18 1#20 16 9.79626e-18
CF19 1#18 16 1.13365e-18
CF20 1#23 17 1.08756e-17
CF21 1#22 11#17 6.4287e-18
CF22 1#20 MX18/M0#d 6.01771e-18
CF23 1#24 MX25/M0#s 3.87155e-18
CF24 MX25/M0#d 11#24 3.69081e-18
CF25 1#20 11#21 3.46554e-18
CF26 1#22 11#19 3.40117e-18
CF27 1#19 MX18/M0#d 3.39273e-18
CF28 1#14 11#18 3.35679e-18
CF29 1#20 MX25/M0#s 2.1931e-18
CF30 1#18 11#19 2.1257e-18
CF31 MX21/M0#g 11#19 1.61859e-18
CF32 1 11#23 1.38569e-18
CF33 1#18 11#23 1.33062e-18
CF34 1#23 11#24 4.78342e-17
CF35 1#18 11#22 9.84867e-18
CF36 1#22 11#22 7.2627e-17
CF37 1#23 MX25/M0#s 1.64984e-17
CF38 1#22 11#23 5.3432e-17
CF39 1#18 11#17 9.35309e-18
CF40 1#22 11#24 8.93108e-18
CF41 1#19 11#18 3.33168e-17
CF42 1#14 MX18/M0#d 1.71052e-17
CF43 MX25/M0#d MX25/M0#s 2.18024e-17
CF44 1#24 11#24 3.53178e-17
CF45 1#20 11#19 3.08791e-17
CF46 1#20 11#18 8.84371e-17
CF47 1#22 11#21 4.16176e-17
CF48 1#24 MX15/M0#d 3.85984e-18
CF49 1#23 2 3.66492e-18
CF50 1#22 MX15/M0#d 3.66342e-18
CF51 1#22 2#16 3.48875e-18
CF52 1#20 MX18/M0#g 2.71321e-18
CF53 MX25/M0#d 2#16 1.66573e-18
CF54 MX25/M0#d 2#20 1.42807e-18
CF55 1#14 2#19 6.90713e-18
CF56 MX25/M0#d 2 6.80914e-18
CF57 1#20 2#19 3.33295e-17
CF58 1#19 2#19 4.52435e-17
CF59 1#20 2#20 6.63754e-17
CF60 1#22 2#20 4.42743e-17
CF61 1#23 2#20 1.14485e-17
CF62 1#23 MX15/M0#d 8.50965e-18
CF63 1#23 2#16 6.49287e-18
CF64 1#14 VSS#12 5.17248e-18
CF65 1#19 VSS#6 4.61046e-18
CF66 1#20 VSS#12 3.919e-18
CF67 1#22 MX22/M0#s 3.12804e-18
CF68 MX21/M0#g VSS#12 2.96842e-18
CF69 MX21/M0#g VSS#3 2.822e-18
CF70 1#19 MX26/M0#s 2.71292e-18
CF71 MX21/M0#g VSS#2 2.45297e-18
CF72 1#14 MX26/M0#s 1.88342e-17
CF73 1#14 VSS#6 7.4489e-18
CF74 MX21/M0#g MX22/M0#s 7.13805e-18
CF75 1#19 VSS#12 1.78154e-17
CF76 1#20 MX22/M0#s 5.75781e-18
RgF59 1 1#8 347.084625 $L=1.08 $W=0.15
RgF60 1#8 1#9 38.857975 $L=0.1645 $W=0.27
RgF61 1#9 1#10 29.410927 $L=0.1645 $W=0.27
RgF62 1#10 MX21/M0#g 401.711304 $L=1.25 $W=0.15
RfF63 1#11 1#13 9.035295 $L=0.12 $W=0.17
RfF64 1#14 1#16 4.022857 $L=0.055 $W=0.175
RfF65 1#17 1#18 9.788236 $L=0.13 $W=0.4
ReF66 1#19 1#20 0.158235 $L=0.31 $W=0.23
ReF67 1#20 1#21 1.328156 $L=1.995 $W=0.17
ReF68 1#21 1#22 0.057878 $L=0.1145 $W=0.29
ReF69 1#22 1#23 1.183107 $L=1.75 $W=0.17
ReF70 1#23 1#24 0.234322 $L=0.45 $W=0.23
RhF71 MX26/M0#d 1#16 15.000000 $A=0.0289
Rh_2_F72 MX25/M0#d 1#13 15.000000 $A=0.0289
RjF73 1#14 1#19 152.000000 $A=0.0289
RjF74 1#18 1#21 152.000000 $A=0.0289
RjF75 1#11 1#24 152.000000 $A=0.0289
RiF76 1#9 1#17 15.000000 $A=0.0289
RmwF77 MX17/M0#s MX26/M0#d 0.001000 $W=1000000
RmwF78 MM0#d MX25/M0#d 0.001000 $W=1000000
RmwF79 MM1#g 1 0.001000 $W=1000000
*
*|NET Y 7.67941e-16
*|P (Y X 0 3.2350 1.7800)
*|I (MX22/M0#d MX22/M0 d X 0 2.7605 0.9400)
*|I (MX23/M0#d MX23/M0 d X 0 2.7605 3.0400)
*|S (Y#2 2.9000 3.0400)
*|S (Y#3 2.9000 2.7650)
*|S (Y#5 2.9000 0.9400)
*|S (Y#6 2.9000 0.9350)
*|S (Y#7 2.9000 0.9350)
*|S (Y#8 3.0295 2.5700)
*|S (Y#9 2.9000 2.7650)
CE1 Y#8 VSS 7.11461e-18
CE2 Y#7 VSS 5.49221e-17
CE3 Y#6 VSS 6.10597e-18
CE4 Y#3 VSS 2.0481e-18
CE5 Y VSS 3.32794e-17
CE6 Y#8 11#17 2.62542e-18
CE7 Y#8 11 3.8775e-18
CE8 Y 11#17 8.77583e-18
CE9 Y#7 11#17 5.68422e-18
CE10 Y#3 11 2.26294e-17
CE11 Y#6 11#17 1.26561e-17
CE12 Y#7 11#19 7.78684e-17
CE13 Y#8 11#22 4.19869e-17
CE14 Y 11#22 2.10165e-17
CE15 Y 11#21 1.15386e-17
CE16 Y#8 11#23 8.07161e-17
CE17 Y#6 11#19 6.32318e-18
CE18 Y#7 11#21 3.70825e-17
CE19 Y#3 11#17 4.45282e-18
CE20 Y#3 11#23 1.73487e-17
CE21 Y#6 MX22/M0#g 1.5065e-17
CE22 Y#7 MX22/M0#g 4.34268e-18
CE23 Y#7 VSS#1 3.6599e-18
CE24 Y#6 VSS#2 7.60398e-18
CE25 Y#7 VSS#2 7.02137e-18
CE26 Y#6 VSS#12 6.02013e-18
CE27 Y#7 VSS#12 3.62294e-17
CE28 Y#7 MX22/M0#s 8.44385e-18
CE29 Y#6 MX22/M0#s 3.76826e-17
RfE50 Y#2 Y#3 8.481928 $L=0.275 $W=0.17
RfE51 Y#5 Y#6 0.125490 $L=0.005 $W=0.17
ReE52 Y#7 Y 0.449778 $L=1.165 $W=0.26
ReE53 Y Y#8 0.416043 $L=0.98 $W=0.26
ReE54 Y#8 Y#9 0.043548 $L=0.1295 $W=0.65
RhE55 MX22/M0#d Y#5 7.500000 $A=0.0578
Rh_2_E56 MX23/M0#d Y#2 5.000000 $A=0.0867
RjE57 Y#6 Y#7 76.000000 $A=0.0578
RjE58 Y#3 Y#9 76.000000 $A=0.0578
*
*Instance Section
*
MX26/M0	MX26/M0#d	MX26/M0#g	MX26/M0#s	VSS	nfet_01v8
+ L=1.5e-07	W=4.2e-07
MX22/M0	MX22/M0#d	MX22/M0#g	MX22/M0#s	VSS	nfet_01v8
+ L=1.5e-07	W=8.4e-07
MX21/M0	MX21/M0#d	MX21/M0#g	MX21/M0#s	VSS	nfet_01v8
+ L=1.5e-07	W=4.2e-07
MX18/M0	MX18/M0#d	MX18/M0#g	MX18/M0#s	VSS	nfet_01v8
+ L=1.5e-07	W=4.2e-07
MX17/M0	MX17/M0#d	MX17/M0#g	MX17/M0#s	VSS	nfet_01v8
+ L=1.5e-07	W=4.2e-07
MX16/M0	MX16/M0#d	MX16/M0#g	MX16/M0#s	VSS	nfet_01v8
+ L=1.5e-07	W=4.2e-07
MX25/M0	MX25/M0#d	MX25/M0#g	MX25/M0#s	VDD	pfet_01v8_hvt
+ L=1.5e-07	W=5.4e-07
MX24/M0	MX24/M0#d	MX24/M0#g	MX24/M0#s	VDD	pfet_01v8_hvt
+ L=1.5e-07	W=5.4e-07
MX23/M0	MX23/M0#d	MX23/M0#g	MX23/M0#s	VDD	pfet_01v8_hvt
+ L=1.5e-07	W=1.24e-06
MX15/M0	MX15/M0#d	MX15/M0#g	MX15/M0#s	VDD	pfet_01v8_hvt
+ L=1.5e-07	W=5.4e-07
MM0	MM0#d	MM0#g	MM0#s	VDD	pfet_01v8_hvt	L=1.5e-07
+ W=5.4e-07
MM1	MM1#d	MM1#g	MM1#s	VDD	pfet_01v8_hvt	L=1.5e-07
+ W=5.4e-07
.ENDS
