*
*|DSPF 1.5
*
*|DATE "Fri Feb 28 11:56:43 2025"
*|VENDOR "Cadence Design Systems"
*|PROGRAM "Cadence Quantus Extraction"
*|VERSION "22.1.0-p089 Linux 64 bit - (Thu Jan 19 11:47:08 PST 2023)"
*|DESIGN "XOR2X1_LP"
*|DIVIDER /
*|DELIMITER #
*|DeviceFingerDelim "@"
*|BUSBIT []
*|GLOBAL_TEMPERATURE 25
*|OPERATING_TEMPERATURE 25
** QRC_TECH_DIR /vols/wfo_devel/projects/reference_SKY130/tech/sky130_release_0.0.4/quantus/extraction/typical 
** HIERARCHICAL_SPLIT_PINS_DELIMITER '%'
** caps2d version: 10
*
.SUBCKT  XOR2X1_LP A B VDD VSS Y
*
*Net Section
*
*|GROUND_NET VSS
*
*|NET B 1.03338e-15
*|P (B X 0 1.3950 2.6050)
*|I (MX23/M0#g MX23/M0 g X 0 1.7650 0.8000)
*|I (MX17/M0#g MX17/M0 g X 0 0.4750 0.8000)
*|I (MX16/M0#g MX16/M0 g X 0 1.3350 3.2800)
*|I (MX15/M0#g MX15/M0 g X 0 0.4750 3.2800)
*|S (B#15 0.4750 2.6000)
*|S (B#16 0.4750 2.4350)
*|S (B#17 0.4750 1.3000)
*|S (B#18 0.4750 1.1350)
*|S (B#19 1.3350 2.7645)
*|S (B#20 1.3350 2.6000)
*|S (B#21 1.7650 1.1350)
*|S (B#22 1.7650 1.3000)
*|S (B#23 1.3800 2.6000)
*|S (B#24 1.3350 2.6000)
*|S (B#25 0.4750 2.6000)
*|S (B#26 1.7650 1.3000)
*|S (B#27 0.4750 1.3000)
*|S (B#28 1.3800 2.6000)
CB1 MX15/M0#g VSS 2.22816e-18
CB2 MX16/M0#g VSS 2.19083e-18
CB3 MX17/M0#g VSS 1.4404e-17
CB4 MX23/M0#g VSS 1.29467e-17
CB5 B#28 VSS 4.14865e-18
CB6 B#27 VSS 2.17498e-17
CB7 B#26 VSS 2.90451e-17
CB8 B#25 VSS 2.39582e-18
CB9 B#24 VSS 6.99901e-18
CB10 B#26 15 1.14505e-17
CB11 MX23/M0#g 15 6.22165e-18
CB12 MX23/M0#g MX23/M0#d 3.76295e-18
CB13 B#28 13#18 3.23051e-18
CB14 B#28 MX30/M0#d 2.8591e-18
CB15 MX23/M0#g 13#15 2.4587e-18
CB16 B#28 MX23/M0#d 1.39389e-18
CB17 MX16/M0#g MX30/M0#d 6.78408e-18
CB18 B#24 MX30/M0#d 6.70991e-18
CB19 B#26 13#20 5.58778e-18
CB20 B#26 MX23/M0#d 1.23612e-17
CB21 B#24 11#19 4.77623e-18
CB22 MX16/M0#g MX16/M0#d 4.7267e-18
CB23 B#27 11#22 4.49322e-18
CB24 B#28 11#17 3.82189e-18
CB25 B#24 11#20 3.77524e-18
CB26 B#26 11#17 3.39092e-18
CB27 MX16/M0#g 11#12 2.99365e-18
CB28 B#26 11#19 2.09915e-18
CB29 MX17/M0#g MX19/M0#d 1.67862e-18
CB30 MX15/M0#g MX16/M0#d 1.27677e-18
CB31 MX23/M0#g 11#21 1.20711e-18
CB32 MX16/M0#g 11#18 1.20253e-18
CB33 B#26 11#22 8.4555e-18
CB34 B#28 11#19 1.59284e-17
CB35 B#28 11#18 3.02679e-17
CB36 B#27 MX19/M0#d 1.02549e-17
CB37 B#24 11#12 1.48644e-17
CB38 B#26 MX19/M0#d 1.01887e-17
CB39 B#28 11#20 7.56677e-17
CB40 B#26 11#21 3.88947e-17
CB41 B#24 11#18 9.13012e-18
CB42 B#28 11#22 1.45912e-17
CB43 MX15/M0#g 1#11 3.20639e-18
CB44 B#28 1#26 2.95761e-18
CB45 MX17/M0#g 1#21 2.48584e-18
CB46 MX17/M0#g 1#23 1.95516e-18
CB47 MX15/M0#g 1#19 1.87473e-18
CB48 MX17/M0#g 1#19 1.48826e-18
CB49 B#26 MX18/M0#g 8.22012e-18
CB50 B#25 1#24 1.83286e-17
CB51 B#28 1#18 3.62458e-17
CB52 B#27 1#19 3.19577e-17
CB53 B#25 1#19 8.70699e-18
CB54 B#24 1#18 5.54456e-18
CB55 B#25 MX15/M0#d 7.00158e-18
CB56 B#25 1#26 6.87842e-18
CB57 B#26 1#18 2.64347e-17
CB58 MX15/M0#g MX15/M0#d 9.88972e-18
CB59 B#27 1#23 1.21148e-17
CB60 B#27 1#18 8.04259e-18
CB61 B#27 MX17/M0#d 1.11699e-17
CB62 MX17/M0#g MX17/M0#d 7.35761e-18
CB63 B#27 1#21 1.72074e-17
CB64 MX23/M0#g VSS#3 4.88362e-18
CB65 MX17/M0#g VSS#12 4.41112e-18
CB66 B#27 VSS#12 4.04595e-18
CB67 MX17/M0#g VSS#6 3.64643e-18
CB68 B#26 VSS#3 2.82094e-18
CB69 MX23/M0#g VSS#12 2.46721e-18
CB70 B#27 VSS#6 2.3171e-18
CB71 B#27 MX19/M0#s 2.21491e-17
CB72 MX17/M0#g MX19/M0#s 7.3052e-18
CB73 MX15/M0#g VDD#12 4.77582e-18
CB74 MX15/M0#g VDD#6 3.79895e-18
CB75 B#25 VDD#12 3.72278e-18
CB76 MX16/M0#g VDD#12 3.38618e-18
CB77 B#24 VDD#12 2.0417e-18
CB78 MX16/M0#g MX15/M0#s 1.56655e-18
CB79 MX16/M0#g VDD 1.59651e-17
CB80 B#25 VDD 1.9479e-17
CB81 B#25 MX15/M0#s 1.54671e-17
CB82 B#24 VDD 1.69119e-17
CB83 MX15/M0#g MX15/M0#s 9.13319e-18
CB84 B#28 VDD 1.02076e-17
CB85 MX15/M0#g VDD 1.35371e-17
CB86 MX16/M0#g VDD#3 5.08789e-18
RgB8 MX15/M0#g B#15 199.665741 $L=0.68 $W=0.15
RgB9 B#15 B#16 34.134449 $L=0.1645 $W=0.27
RgB10 B#16 B#17 345.917053 $L=1.135 $W=0.15
RgB11 B#17 B#18 34.134449 $L=0.1645 $W=0.27
RgB12 B#18 MX17/M0#g 107.691292 $L=0.335 $W=0.15
RgB13 MX16/M0#g B#19 165.531296 $L=0.515 $W=0.15
RgB14 B#19 B#20 34.134449 $L=0.1645 $W=0.27
RgB15 MX23/M0#g B#21 107.691292 $L=0.335 $W=0.15
RgB16 B#21 B#22 34.134449 $L=0.1645 $W=0.27
RfB17 B#23 B#24 3.388236 $L=0.045 $W=0.17
RfB18 B#24 B#25 64.752945 $L=0.86 $W=0.17
RfB19 B#26 B#27 97.129410 $L=1.29 $W=0.17
ReB20 B#28 B 0.002404 $L=0.005 $W=0.26
RjB21 B#23 B#28 152.000000 $A=0.0289
RiB22 B#20 B#24 15.000000 $A=0.0289
RiB23 B#15 B#25 15.000000 $A=0.0289
RiB24 B#22 B#26 15.000000 $A=0.0289
RiB25 B#17 B#27 15.000000 $A=0.0289
*
*|NET 11 1.25196e-15
*|I (MX22/M0#g MX22/M0 g X 0 2.1950 0.8000)
*|I (MX19/M0#d MX19/M0 d X 0 0.9805 0.8000)
*|I (MX18/M0#s MX18/M0 s X 0 1.2595 0.8000)
*|I (MX16/M0#d MX16/M0 d X 0 1.2595 3.2800)
*|I (MM0#d MM0 d X 0 0.9805 3.2800)
*|I (MM1#g MM1 g X 0 2.1950 3.2800)
*|S (11 2.1950 3.2800)
*|S (11#8 2.1950 2.0950)
*|S (11#9 2.1950 1.9300)
*|S (11#11 1.1200 3.2800)
*|S (11#12 1.1200 3.0650)
*|S (11#13 1.1200 0.9300)
*|S (11#15 1.1200 0.8000)
*|S (11#16 2.1950 2.0950)
*|S (11#17 1.9450 2.0950)
*|S (11#18 1.1200 3.0650)
*|S (11#19 1.9450 3.0650)
*|S (11#20 1.9450 2.0950)
*|S (11#21 1.9450 0.9300)
*|S (11#22 1.1200 0.9300)
CG1 MX16/M0#d VSS 1.22527e-18
CG2 MX19/M0#d VSS 4.43439e-18
CG3 MX22/M0#g VSS 1.05777e-17
CG4 11#22 VSS 9.81305e-18
CG5 11#21 VSS 2.48703e-17
CG6 11#20 VSS 8.07597e-18
CG7 11#18 VSS 3.39908e-18
CG8 11#19 VSS 4.04752e-18
CG9 11#16 VSS 1.1581e-17
CG10 11#12 VSS 1.48318e-18
CG11 11#17 VSS 4.30905e-18
CG12 11 VSS 2.30475e-18
CG13 11#17 15 1.47641e-18
CG14 11#17 17 3.97847e-18
CG15 11#21 15 1.90125e-17
CG16 11 17 8.14136e-18
CG17 MX22/M0#g 15 6.55396e-18
CG18 11#12 17 1.37798e-18
CG19 11#19 17 2.43532e-17
CG20 11#16 13#17 6.19204e-18
CG21 11#20 13#19 6.01787e-18
CG22 MX19/M0#d 13#15 5.59848e-18
CG23 MX19/M0#d 13#22 4.91553e-18
CG24 MX16/M0#d 13#18 4.89941e-18
CG25 11#20 13#17 4.75792e-18
CG26 11#22 MX23/M0#d 4.23181e-18
CG27 11#18 MX30/M0#d 4.20744e-18
CG28 11 13#19 3.91035e-18
CG29 MX22/M0#g 13#21 3.78939e-18
CG30 11#16 13#19 2.81337e-18
CG31 11#16 13#21 2.42193e-18
CG32 11#19 13#19 6.81032e-17
CG33 11#18 13#18 1.09326e-17
CG34 11#16 13#20 1.70905e-17
CG35 11#21 13#20 3.60812e-17
CG36 MX19/M0#d MX23/M0#d 1.43184e-17
CG37 11#19 13#18 5.15116e-17
CG38 11#20 13#20 9.13475e-17
CG39 11#21 13#21 4.37416e-17
CG40 11#21 MX23/M0#d 7.75034e-18
CG41 11#22 13#22 1.26526e-17
CG42 11#21 13#22 5.97759e-17
CG43 MX16/M0#d MX30/M0#d 1.79132e-17
CG44 11#12 MX30/M0#d 7.12726e-18
CG45 11#19 MX30/M0#d 9.87395e-18
CG46 MX19/M0#d VSS#6 4.79226e-18
CG47 11#22 MX19/M0#s 4.27895e-18
CG48 MX22/M0#g VSS#2 2.99416e-18
CG49 11#22 VSS#6 2.80743e-18
CG50 MX22/M0#g VSS#12 2.46721e-18
CG51 11#21 MX22/M0#s 2.36116e-18
CG52 MX22/M0#g VSS#3 2.31879e-18
CG53 MX19/M0#d VSS#12 5.7531e-18
CG54 11#22 VSS#12 1.9421e-17
CG55 MX19/M0#d MX19/M0#s 2.13121e-17
CG56 MX22/M0#g MX22/M0#s 5.98991e-18
RgG81 11 11#8 361.939087 $L=1.185 $W=0.15
RgG82 11#8 11#9 34.134449 $L=0.1645 $W=0.27
RgG83 11#9 MX22/M0#g 363.151276 $L=1.13 $W=0.15
RfG84 11#11 11#12 16.188236 $L=0.215 $W=0.17
RfG85 11#13 11#15 9.788236 $L=0.13 $W=0.17
RfG86 11#16 11#17 18.823530 $L=0.25 $W=0.17
ReG87 11#18 11#19 0.547977 $L=0.825 $W=0.17
ReG88 11#19 11#20 0.462429 $L=0.97 $W=0.26
ReG89 11#20 11#21 0.556179 $L=1.165 $W=0.26
ReG90 11#21 11#22 0.547977 $L=0.825 $W=0.17
RhG91 MX19/M0#d 11#15 15.000000 $A=0.0289
Rh_2_G92 MX16/M0#d 11#11 15.000000 $A=0.0289
RjG93 11#12 11#18 152.000000 $A=0.0289
RjG94 11#17 11#20 152.000000 $A=0.0289
RjG95 11#13 11#22 152.000000 $A=0.0289
RiG96 11#8 11#16 15.000000 $A=0.0289
RmwG97 MX18/M0#s MX19/M0#d 0.001000 $W=1000000
RmwG98 MM0#d MX16/M0#d 0.001000 $W=1000000
RmwG99 MM1#g 11 0.001000 $W=1000000
*
*|NET VDD 9.96693e-16
*|P (VDD X 0 1.6400 4.1450)
*|I (MX20/M0#s MX20/M0 s X 0 2.6095 3.2400)
*|I (MX15/M0#s MX15/M0 s X 0 0.5505 3.2800)
*|I (MM0#s MM0 s X 0 0.8295 3.2800)
*|I (MM1#d MM1 d X 0 2.2705 3.2800)
*|S (VDD#1 3.6795 4.1400)
*|S (VDD#2 2.4700 4.1400)
*|S (VDD#3 1.8400 4.1400)
*|S (VDD#4 1.8400 4.1400)
*|S (VDD#6 0.6900 4.1400)
*|S (VDD#7 0.0000 4.1400)
*|S (VDD#9 2.4700 3.2400)
*|S (VDD#11 0.6900 3.2800)
*|S (VDD#12 1.8400 4.1400)
CC1 MX15/M0#s VSS 1.21727e-18
CC2 MX20/M0#s VSS 1.62638e-18
CC3 VDD#12 VSS 5.30568e-18
CC4 VDD#6 VSS 3.23984e-18
CC5 VDD#2 VSS 2.55649e-18
CC6 VDD#3 VSS 4.72112e-18
CC7 VDD VSS 3.05841e-19
CC8 VDD 17 7.13207e-18
CC9 VDD#3 17 6.06011e-18
CC10 MX20/M0#s 17 2.45006e-17
CC11 VDD#12 17 5.64848e-18
CC12 VDD#2 13#19 4.25852e-18
CC13 VDD#3 13#19 2.73735e-18
CC14 MX20/M0#s 13#17 1.45695e-18
CC15 VDD#12 13 5.48428e-18
CC16 VDD#12 MX30/M0#d 5.54665e-18
CC17 VDD#12 13#19 3.59712e-17
CC18 VDD#3 13#18 7.9471e-18
CC19 MX20/M0#s 13#19 4.62847e-17
CC20 VDD 13#20 9.55921e-18
CC21 MX20/M0#s 13 1.04083e-17
CC22 VDD 13#19 7.53564e-18
CC23 VDD#2 13 5.81423e-18
CC24 VDD#12 13#18 3.32987e-17
CC25 VDD 13 1.3562e-17
CC26 VDD#3 MX30/M0#d 7.27491e-18
CC27 MX15/M0#s 11#18 4.82098e-18
CC28 VDD 11#17 4.41478e-18
CC29 VDD#2 11 3.25366e-18
CC30 VDD 11#12 3.09233e-18
CC31 VDD#12 11 2.95077e-18
CC32 MX20/M0#s 11#19 2.83211e-18
CC33 VDD 11#18 2.62476e-18
CC34 VDD#3 11 2.50282e-18
CC35 VDD#6 11#18 1.71592e-18
CC36 VDD#12 MX16/M0#d 6.03498e-18
CC37 MX15/M0#s MX16/M0#d 2.02225e-17
CC38 VDD 11#16 7.08133e-18
CC39 VDD#12 11#18 1.43114e-17
CC40 VDD#6 MX16/M0#d 6.04896e-18
CC41 MX20/M0#s 11 8.36389e-18
CC42 MX15/M0#s 11#12 7.5007e-18
CC43 VDD 11 1.38547e-17
CC44 VDD 11#20 8.35793e-18
CC45 VDD 11#19 2.16212e-17
CC46 VDD#12 1#11 3.9207e-18
CC47 VDD#7 1#26 3.30914e-18
CC48 VDD#12 1 2.95077e-18
CC49 VDD#6 1#11 2.19836e-18
CC50 MX20/M0#s 1#26 1.6621e-18
CC51 MX15/M0#s MX15/M0#d 1.81979e-17
CC52 VDD#6 1#26 7.16088e-18
CC53 MX15/M0#s 1#26 1.23467e-17
CC54 VDD#7 1#11 7.44062e-18
CC55 VDD#12 1#26 4.01503e-17
CC56 MX15/M0#s 1#11 1.08675e-17
CC57 VDD 1 1.84771e-17
CC58 VDD 1#26 6.81434e-17
CC59 VDD#3 1 5.77573e-18
CC60 VDD 1#24 2.55407e-17
CC61 VDD 1#11 5.63025e-18
CC62 VDD#12 Y#3 7.05785e-18
CC63 VDD#2 Y#3 6.23103e-18
CC64 VDD Y#3 2.404e-17
CC65 VDD#1 Y#8 3.59449e-18
CC66 MX20/M0#s Y#8 4.72452e-18
CC67 VDD Y 9.54585e-18
CC68 VDD Y#8 6.4055e-17
CC69 VDD#2 Y#8 4.7973e-18
CC70 MX20/M0#s Y#3 3.10828e-17
CC71 VDD#12 Y#8 2.70332e-17
RfC26 VDD#1 VDD#2 61.651215 $L=1.2095 $W=0.25
RfC27 VDD#2 VDD#3 31.980810 $L=0.63 $W=0.25
RfC28 VDD#3 VDD#6 58.604813 $L=1.15 $W=0.25
RfC29 VDD#6 VDD#7 35.052811 $L=0.69 $W=0.25
RfC30 VDD#2 VDD#9 61.156857 $L=0.9 $W=0.17
RfC31 VDD#6 VDD#11 58.145092 $L=0.86 $W=0.17
ReC32 VDD#12 VDD 0.062500 $L=0.2 $W=0.4
Rh_1_C33 VDD#4 VDD#3 2.142857 $A=0.2023
Rh_2_C34 MX20/M0#s VDD#9 15.000000 $A=0.0289
Rh_2_C35 MX15/M0#s VDD#11 15.000000 $A=0.0289
RjC36 VDD#3 VDD#12 21.714285 $A=0.2023
RmwC37 MM0#s MX15/M0#s 0.001000 $W=1000000
RmwC38 MM1#d MX20/M0#s 0.001000 $W=1000000
*
*|NET VSS 1.15925e-15
*|P (VSS X 0 1.8300 0.0050)
*|I (MX22/M0#s MX22/M0 s X 0 2.2705 0.8000)
*|I (MX21/M0#s MX21/M0 s X 0 2.6095 0.8000)
*|I (MX19/M0#s MX19/M0 s X 0 0.8295 0.8000)
*|I (MX17/M0#s MX17/M0 s X 0 0.5505 0.8000)
*|S (VSS#1 3.6795 0.0000)
*|S (VSS#2 2.4700 0.0000)
*|S (VSS#3 1.8400 0.0000)
*|S (VSS#4 1.8400 0.0000)
*|S (VSS#6 0.6900 0.0000)
*|S (VSS#7 0.0000 0.0000)
*|S (VSS#9 2.4700 0.8000)
*|S (VSS#11 0.6900 0.8000)
*|S (VSS#12 1.8400 0.0000)
RfD39 VSS#1 VSS#2 61.651215 $L=1.2095 $W=0.25
RfD40 VSS#2 VSS#3 31.980810 $L=0.63 $W=0.25
RfD41 VSS#3 VSS#6 58.604813 $L=1.15 $W=0.25
RfD42 VSS#6 VSS#7 35.052811 $L=0.69 $W=0.25
RfD43 VSS#2 VSS#9 53.627445 $L=0.8 $W=0.17
RfD44 VSS#6 VSS#11 53.627445 $L=0.8 $W=0.17
ReD45 VSS#12 VSS 0.003125 $L=0.01 $W=0.4
RhD46 MX22/M0#s VSS#9 15.000000 $A=0.0289
RhD47 MX19/M0#s VSS#11 15.000000 $A=0.0289
Rh_3_D48 VSS#4 VSS#3 2.142857 $A=0.2023
RjD49 VSS#3 VSS#12 21.714285 $A=0.2023
RmwD50 MX21/M0#s MX22/M0#s 0.001000 $W=1000000
RmwD51 MX17/M0#s MX19/M0#s 0.001000 $W=1000000
*
*|NET 13 1.44967e-15
*|I (MX23/M0#d MX23/M0 d X 0 1.6895 0.8000)
*|I (MX21/M0#g MX21/M0 g X 0 2.6850 0.8000)
*|I (MX18/M0#d MX18/M0 d X 0 1.4105 0.8000)
*|I (MX30/M0#d MX30/M0 d X 0 1.6895 3.2800)
*|I (MX20/M0#g MX20/M0 g X 0 2.6850 3.2400)
*|I (MX16/M0#s MX16/M0 s X 0 1.4105 3.2800)
*|S (13 2.6850 3.2400)
*|S (13#8 2.6850 1.6300)
*|S (13#9 2.6850 1.4650)
*|S (13#10 1.5500 3.4050)
*|S (13#12 1.5500 3.2800)
*|S (13#14 1.5500 0.8000)
*|S (13#15 1.5500 0.6200)
*|S (13#16 2.6850 1.6300)
*|S (13#17 2.4400 1.6300)
*|S (13#18 1.5500 3.4050)
*|S (13#19 2.4400 3.4050)
*|S (13#20 2.4400 1.6300)
*|S (13#21 2.4400 0.6200)
*|S (13#22 1.5500 0.6200)
CH1 MX30/M0#d VSS 4.56252e-18
CH2 MX21/M0#g VSS 1.58595e-17
CH3 MX23/M0#d VSS 2.11546e-18
CH4 13#22 VSS 5.16169e-18
CH5 13#21 VSS 9.27605e-18
CH6 13#20 VSS 1.39104e-17
CH7 13#18 VSS 2.74096e-18
CH8 13#19 VSS 4.69616e-18
CH9 13#16 VSS 1.95184e-17
CH10 13#15 VSS 7.16453e-18
CH11 13#17 VSS 1.08209e-17
CH12 13 VSS 8.11574e-19
CH13 13#22 15 4.24672e-18
CH14 13#21 15 1.21227e-17
CH15 MX21/M0#g 15 1.48443e-18
CH16 13 17 2.58445e-18
CH17 13#18 17 7.88513e-18
CH18 13#19 17 1.58873e-17
CH19 MX23/M0#d 15 1.38299e-17
CH20 MX30/M0#d 17 2.5556e-17
CH21 13#15 15 5.10718e-18
CH22 MX21/M0#g VSS#12 4.8201e-18
CH23 13#15 VSS#12 4.50623e-18
CH24 13#21 VSS#2 4.48762e-18
CH25 13#16 VSS#12 3.46228e-18
CH26 13#22 MX19/M0#s 3.44341e-18
CH27 13#21 VSS#3 3.06132e-18
CH28 13#21 MX22/M0#s 3.2292e-17
CH29 13#21 VSS#12 4.60576e-17
CH30 13#22 VSS#3 8.11533e-18
CH31 13#22 VSS#12 4.18108e-17
CH32 MX21/M0#g VSS#2 5.74683e-18
CH33 13#17 MX22/M0#s 5.82742e-18
CH34 13#15 VSS#3 9.70722e-18
CH35 MX21/M0#g MX22/M0#s 7.22251e-18
RgH100 13 13#8 498.505737 $L=1.61 $W=0.15
RgH101 13#8 13#9 34.134449 $L=0.1645 $W=0.27
RgH102 13#9 MX21/M0#g 213.731293 $L=0.665 $W=0.15
RfH103 13#10 13#12 9.411764 $L=0.125 $W=0.17
RfH104 13#14 13#15 13.552941 $L=0.18 $W=0.17
RfH105 13#16 13#17 18.447060 $L=0.245 $W=0.17
ReH106 13#18 13#19 0.595771 $L=0.89 $W=0.17
ReH107 13#19 13#20 0.849448 $L=1.775 $W=0.26
ReH108 13#20 13#21 0.481659 $L=1.01 $W=0.26
ReH109 13#21 13#22 0.595771 $L=0.89 $W=0.17
RhH110 MX23/M0#d 13#14 15.000000 $A=0.0289
Rh_2_H111 MX30/M0#d 13#12 15.000000 $A=0.0289
RjH112 13#10 13#18 152.000000 $A=0.0289
RjH113 13#17 13#20 152.000000 $A=0.0289
RjH114 13#15 13#22 152.000000 $A=0.0289
RiH115 13#8 13#16 15.000000 $A=0.0289
RmwH116 MX18/M0#d MX23/M0#d 0.001000 $W=1000000
RmwH117 MX20/M0#g 13 0.001000 $W=1000000
RmwH118 MX16/M0#s MX30/M0#d 0.001000 $W=1000000
*
*|NET 1 9.74408e-16
*|I (MX18/M0#g MX18/M0 g X 0 1.3350 0.8000)
*|I (MX17/M0#d MX17/M0 d X 0 0.3995 0.8000)
*|I (MX30/M0#g MX30/M0 g X 0 1.7650 3.2800)
*|I (MX15/M0#d MX15/M0 d X 0 0.3995 3.2800)
*|S (1 1.7650 3.2800)
*|S (1#8 1.7650 1.8400)
*|S (1#9 1.5550 1.8400)
*|S (1#10 1.3350 1.8400)
*|S (1#11 0.2600 3.5800)
*|S (1#13 0.2600 3.2800)
*|S (1#14 0.2600 0.8000)
*|S (1#17 1.5550 1.8400)
*|S (1#18 1.4700 1.8375)
*|S (1#19 0.2900 1.7550)
*|S (1#20 0.2900 1.7550)
*|S (1#21 0.2900 1.6100)
*|S (1#22 0.2600 0.9445)
*|S (1#23 0.2600 0.8000)
*|S (1#24 0.2900 1.8995)
*|S (1#25 0.2600 3.4350)
*|S (1#26 0.2600 3.5800)
CF1 MX15/M0#d VSS 5.73699e-19
CF2 MX17/M0#d VSS 6.87958e-18
CF3 MX18/M0#g VSS 1.88852e-17
CF4 1#26 VSS 6.3319e-18
CF5 1#24 VSS 1.12522e-17
CF6 1#23 VSS 3.40238e-17
CF7 1#21 VSS 2.4062e-17
CF8 1#18 VSS 2.64348e-17
CF9 1#11 VSS 9.84121e-19
CF10 1#19 VSS 2.88267e-17
CF11 1 VSS 1.2104e-17
CF12 MX18/M0#g MX23/M0#d 3.76295e-18
CF13 1#18 13#17 3.02324e-18
CF14 1#18 13#20 2.4659e-18
CF15 MX18/M0#g 13#15 2.4587e-18
CF16 1 13#18 1.82803e-18
CF17 1#18 MX30/M0#d 1.51432e-18
CF18 1#23 13#22 5.09619e-18
CF19 1 MX30/M0#d 6.79664e-18
CF20 1#26 13#18 8.5588e-18
CF21 1 11#19 4.31262e-18
CF22 1#18 11#22 3.39896e-18
CF23 1#18 11#19 2.85172e-18
CF24 1#23 MX19/M0#d 2.49748e-18
CF25 1#18 11#21 2.15406e-18
CF26 1#26 MX16/M0#d 2.11953e-18
CF27 1#26 11#12 1.85497e-18
CF28 MX15/M0#d 11#18 1.27276e-18
CF29 MX18/M0#g MX19/M0#d 6.21523e-18
CF30 1#18 11#20 1.23081e-17
CF31 1#26 11#18 1.34896e-17
CF32 1#23 11#22 1.46158e-17
CF33 MX17/M0#d VSS#7 4.62784e-18
CF34 1#19 VSS#12 4.30707e-18
CF35 1#23 VSS#7 3.30889e-18
CF36 MX18/M0#g VSS#12 2.68326e-18
CF37 1#23 VSS#6 2.11021e-18
CF38 MX18/M0#g VSS#3 4.88362e-18
CF39 1#23 MX19/M0#s 7.32536e-18
CF40 MX17/M0#d MX19/M0#s 1.94994e-17
CF41 1#23 VSS#12 2.27383e-17
CF42 MX17/M0#d VSS#12 5.27545e-18
RgF61 1 1#8 425.788727 $L=1.44 $W=0.15
RgF62 1#8 1#9 35.806923 $L=0.21 $W=0.33
RgF63 1#9 1#10 37.267529 $L=0.22 $W=0.33
RgF64 1#10 MX18/M0#g 297.255402 $L=1.04 $W=0.15
RfF65 1#11 1#13 22.588236 $L=0.3 $W=0.17
RfF66 1#17 1#18 4.810695 $L=0.0845 $W=0.335
RfF67 1#18 1#19 88.856613 $L=1.18 $W=0.17
ReF68 1#20 1#21 0.078668 $L=0.1445 $W=0.23
ReF69 1#21 1#22 0.489242 $L=0.665 $W=0.17
ReF70 1#22 1#23 0.083049 $L=0.1445 $W=0.23
ReF71 1#20 1#24 0.078668 $L=0.1445 $W=0.23
ReF72 1#24 1#25 1.128948 $L=1.535 $W=0.17
ReF73 1#25 1#26 0.083049 $L=0.1445 $W=0.23
RhF74 MX17/M0#d 1#14 15.000000 $A=0.0289
Rh_2_F75 MX15/M0#d 1#13 15.000000 $A=0.0289
RjF76 1#19 1#20 152.000000 $A=0.0289
RjF77 1#14 1#23 152.000000 $A=0.0289
RjF78 1#11 1#26 152.000000 $A=0.0289
RiF79 1#9 1#17 15.000000 $A=0.0289
RmwF80 MX30/M0#g 1 0.001000 $W=1000000
*
*|NET 15 1.13048e-16
*|I (MX23/M0#s MX23/M0 s X 0 1.8405 0.8000)
*|I (MX22/M0#d MX22/M0 d X 0 2.1195 0.8000)
*|S (15 1.9800 0.8000)
CI1 15 VSS 6.22681e-18
CI2 15 VSS#12 4.51424e-18
CI3 15 VSS#3 3.95608e-18
CI4 15 MX22/M0#s 1.68453e-17
RmwI119 MX23/M0#s 15 0.001000 $W=1000000
RmwI120 MX22/M0#d 15 0.001000 $W=1000000
*
*|NET 17 1.44252e-16
*|I (MX30/M0#s MX30/M0 s X 0 1.8405 3.2800)
*|I (MM1#s MM1 s X 0 2.1195 3.2800)
*|S (17 1.9800 3.2350)
CI5 17 VSS 1.11467e-17
RmwI121 MX30/M0#s 17 0.001000 $W=1000000
RmwI122 MM1#s 17 0.001000 $W=1000000
*
*|NET A 5.28127e-16
*|P (A X 0 0.9350 2.0750)
*|I (MX19/M0#g MX19/M0 g X 0 0.9050 0.8000)
*|I (MM0#g MM0 g X 0 0.9050 3.2800)
*|S (A#8 0.9050 2.0950)
*|S (A#9 0.9050 1.9300)
*|S (A#10 0.9200 2.0950)
*|S (A#11 0.9050 2.0950)
*|S (A#12 0.9200 2.0950)
CA1 MM0#g VSS 3.55244e-18
CA2 MX19/M0#g VSS 1.7459e-17
CA3 A#12 VSS 9.29991e-18
CA4 A#11 VSS 6.96184e-18
CA5 A#12 11#12 1.88457e-18
CA6 A#11 11#18 1.64566e-18
CA7 A#11 11#17 3.11882e-18
CA8 MM0#g 11#12 2.99365e-18
CA9 MX19/M0#g MX19/M0#d 6.22779e-18
CA10 A#12 11#21 3.00386e-18
CA11 A#12 11#22 1.17505e-17
CA12 A#11 11#20 3.00658e-18
CA13 A#12 11#18 1.37318e-17
CA14 MM0#g MX16/M0#d 4.7267e-18
CA15 MM0#g MX15/M0#d 1.31473e-18
CA16 MX19/M0#g MX17/M0#d 1.31473e-18
CA17 A#12 1#18 1.31158e-17
CA18 A#11 1#24 7.34462e-18
CA19 A#11 1#19 1.96582e-17
CA20 A#12 1#19 1.37196e-17
CA21 A#11 1#18 2.9182e-17
CA22 A#12 1#24 4.24374e-17
CA23 A#12 1#26 6.12359e-18
CA24 A#12 1#21 2.76435e-17
CA25 MX19/M0#g MX19/M0#s 6.21439e-18
CA26 MX19/M0#g VSS#6 3.64643e-18
CA27 MX19/M0#g VSS#12 3.38618e-18
CA28 A#12 VSS#12 6.47675e-18
CA29 MM0#g VDD#12 3.65748e-18
CA30 MM0#g MX15/M0#s 7.70836e-18
CA31 MM0#g VDD#6 3.78199e-18
CA32 A#12 VDD#12 7.96572e-18
CA33 A#11 VDD 8.78027e-18
CA34 MM0#g VDD 1.44131e-17
CA35 A#12 VDD 8.3122e-18
CA36 MX19/M0#g B#27 6.58743e-18
CA37 A#11 B#25 9.24857e-18
CA38 A#12 B#28 1.21156e-16
CA39 A#12 B#24 1.32479e-17
CA40 A#12 B#25 1.39628e-17
CA41 MM0#g B#24 2.69918e-18
CA42 A#11 B#24 1.41638e-17
CA43 A#11 B#28 9.01591e-18
CA44 A#12 B#27 1.24857e-17
RgA1 MM0#g A#8 361.939087 $L=1.185 $W=0.15
RgA2 A#8 A#9 34.134449 $L=0.1645 $W=0.27
RgA3 A#9 MX19/M0#g 363.151276 $L=1.13 $W=0.15
RfA4 A#10 A#11 1.129412 $L=0.015 $W=0.17
ReA5 A A#12 0.009615 $L=0.02 $W=0.26
RjA6 A#10 A#12 152.000000 $A=0.0289
RiA7 A#8 A#11 15.000000 $A=0.0289
*
*|NET Y 6.91657e-16
*|P (Y X 0 3.2350 1.7700)
*|I (MX21/M0#d MX21/M0 d X 0 2.7605 0.8000)
*|I (MX20/M0#d MX20/M0 d X 0 2.7605 3.2400)
*|S (Y#2 2.9000 3.2400)
*|S (Y#3 2.9000 2.9850)
*|S (Y#4 2.9000 0.9400)
*|S (Y#6 2.9000 0.8000)
*|S (Y#7 2.9000 0.9400)
*|S (Y#8 3.0145 2.7800)
*|S (Y#9 2.9000 2.9850)
CE1 MX21/M0#d VSS 1.58872e-17
CE2 Y#8 VSS 3.44698e-18
CE3 Y#7 VSS 6.61805e-17
CE4 Y#3 VSS 6.26448e-18
CE5 Y VSS 3.43749e-17
CE6 Y#7 MX21/M0#g 2.13924e-18
CE7 Y#8 13 2.00552e-18
CE8 Y 13#20 3.43749e-17
CE9 Y 13#16 1.11387e-17
CE10 Y#8 13#19 8.19271e-17
CE11 MX21/M0#d 13#16 4.78229e-18
CE12 Y#3 13#19 1.30049e-17
CE13 MX21/M0#d 13#21 7.03013e-18
CE14 Y#8 13#20 1.60493e-17
CE15 Y#7 13#20 4.60508e-17
CE16 Y#3 13#16 4.03e-18
CE17 Y#7 13#21 5.48192e-17
CE18 Y#3 13 1.1429e-17
CE19 Y#7 13#16 7.10051e-18
CE20 MX21/M0#d MX21/M0#g 8.11278e-18
CE21 Y#7 VSS#12 3.20273e-17
CE22 MX21/M0#d MX22/M0#s 1.96132e-17
CE23 Y#7 MX22/M0#s 5.10245e-18
CE24 MX21/M0#d VSS#12 5.45879e-18
CE25 Y#7 VSS#1 3.62003e-18
CE26 Y#7 VSS#2 7.49052e-18
CE27 MX21/M0#d VSS#2 6.03456e-18
RfE52 Y#2 Y#3 19.200001 $L=0.255 $W=0.17
RfE53 Y#4 Y#6 10.541177 $L=0.14 $W=0.17
ReE54 Y#7 Y 0.442567 $L=1.15 $W=0.26
ReE55 Y Y#8 0.529023 $L=1.215 $W=0.26
ReE56 Y#8 Y#9 0.030022 $L=0.1145 $W=0.66
RhE57 MX21/M0#d Y#6 15.000000 $A=0.0289
Rh_2_E58 MX20/M0#d Y#2 15.000000 $A=0.0289
RjE59 Y#4 Y#7 152.000000 $A=0.0289
RjE60 Y#3 Y#9 76.000000 $A=0.0578
*
*Instance Section
*
MX23/M0	MX23/M0#d	MX23/M0#g	MX23/M0#s	VSS	nfet_01v8
+ L=1.5e-07	W=4.2e-07
MX22/M0	MX22/M0#d	MX22/M0#g	MX22/M0#s	VSS	nfet_01v8
+ L=1.5e-07	W=4.2e-07
MX21/M0	MX21/M0#d	MX21/M0#g	MX21/M0#s	VSS	nfet_01v8
+ L=1.5e-07	W=4.2e-07
MX19/M0	MX19/M0#d	MX19/M0#g	MX19/M0#s	VSS	nfet_01v8
+ L=1.5e-07	W=4.2e-07
MX18/M0	MX18/M0#d	MX18/M0#g	MX18/M0#s	VSS	nfet_01v8
+ L=1.5e-07	W=4.2e-07
MX17/M0	MX17/M0#d	MX17/M0#g	MX17/M0#s	VSS	nfet_01v8
+ L=1.5e-07	W=4.2e-07
MX30/M0	MX30/M0#d	MX30/M0#g	MX30/M0#s	VDD	pfet_01v8_hvt
+ L=1.5e-07	W=5.4e-07
MX20/M0	MX20/M0#d	MX20/M0#g	MX20/M0#s	VDD	pfet_01v8_hvt
+ L=1.5e-07	W=6.2e-07
MX16/M0	MX16/M0#d	MX16/M0#g	MX16/M0#s	VDD	pfet_01v8_hvt
+ L=1.5e-07	W=5.4e-07
MX15/M0	MX15/M0#d	MX15/M0#g	MX15/M0#s	VDD	pfet_01v8_hvt
+ L=1.5e-07	W=5.4e-07
MM0	MM0#d	MM0#g	MM0#s	VDD	pfet_01v8_hvt	L=1.5e-07
+ W=5.4e-07
MM1	MM1#d	MM1#g	MM1#s	VDD	pfet_01v8_hvt	L=1.5e-07
+ W=5.4e-07
.ENDS
