*
*|DSPF 1.5
*
*|DATE "Fri Feb 28 11:55:22 2025"
*|VENDOR "Cadence Design Systems"
*|PROGRAM "Cadence Quantus Extraction"
*|VERSION "22.1.0-p089 Linux 64 bit - (Thu Jan 19 11:47:08 PST 2023)"
*|DESIGN "XOR2X2_LP"
*|DIVIDER /
*|DELIMITER #
*|DeviceFingerDelim "@"
*|BUSBIT []
*|GLOBAL_TEMPERATURE 25
*|OPERATING_TEMPERATURE 25
** QRC_TECH_DIR /vols/wfo_devel/projects/reference_SKY130/tech/sky130_release_0.0.4/quantus/extraction/typical 
** HIERARCHICAL_SPLIT_PINS_DELIMITER '%'
** caps2d version: 10
*
.SUBCKT  XOR2X2_LP A B VDD VSS Y
*
*Net Section
*
*|GROUND_NET VSS
*
*|NET B 1.01238e-15
*|P (B X 0 1.3950 2.6050)
*|I (MX21/M0#g MX21/M0 g X 0 1.7650 0.7250)
*|I (MX15/M0#g MX15/M0 g X 0 0.4750 0.7250)
*|I (MX14/M0#g MX14/M0 g X 0 1.3350 3.3900)
*|I (MX13/M0#g MX13/M0 g X 0 0.4750 3.3900)
*|S (B#15 0.4750 2.6000)
*|S (B#16 0.4750 2.4350)
*|S (B#17 0.4750 1.3000)
*|S (B#18 0.4750 1.1350)
*|S (B#19 1.3350 2.7645)
*|S (B#20 1.3350 2.6000)
*|S (B#21 1.7650 1.1350)
*|S (B#22 1.7650 1.3000)
*|S (B#23 1.3800 2.6000)
*|S (B#24 1.3350 2.6000)
*|S (B#25 0.4750 2.6000)
*|S (B#26 1.7650 1.3000)
*|S (B#27 0.4750 1.3000)
*|S (B#28 1.3800 2.6000)
CB1 MX13/M0#g VSS 2.18434e-18
CB2 MX14/M0#g VSS 1.95557e-18
CB3 MX15/M0#g VSS 1.62808e-17
CB4 MX21/M0#g VSS 1.88801e-17
CB5 B#28 VSS 5.27617e-18
CB6 B#27 VSS 2.08296e-17
CB7 B#26 VSS 2.50623e-17
CB8 B#25 VSS 2.40152e-18
CB9 B#24 VSS 4.21592e-18
CB10 B#26 14 5.84053e-18
CB11 MX21/M0#g 14 6.23309e-18
CB12 B#24 MX28/M0#d 4.73067e-18
CB13 B#26 12#20 4.08522e-18
CB14 B#28 12#18 3.28591e-18
CB15 B#28 MX28/M0#d 2.25608e-18
CB16 B#26 MX19/M0#g 1.9751e-18
CB17 MX21/M0#g 12#22 1.47583e-18
CB18 B#28 12#15 1.18993e-18
CB19 B#26 12#15 8.60698e-18
CB20 MX14/M0#g MX28/M0#d 6.77794e-18
CB21 MX21/M0#g 12#15 5.28733e-18
CB22 B#24 10#19 4.97527e-18
CB23 B#27 10#22 4.49322e-18
CB24 B#28 10#17 3.82189e-18
CB25 B#26 10#17 3.39092e-18
CB26 B#24 10#20 3.12436e-18
CB27 MX14/M0#g 10#12 2.29703e-18
CB28 B#26 10#19 2.09915e-18
CB29 MX13/M0#g MX14/M0#d 1.46328e-18
CB30 MX14/M0#g 10#18 1.4276e-18
CB31 MX21/M0#g 10#21 1.17714e-18
CB32 B#24 10#22 1.0735e-18
CB33 B#26 10#22 8.51918e-18
CB34 B#26 10#21 3.85839e-17
CB35 B#27 10#13 1.02824e-17
CB36 MX14/M0#g MX14/M0#d 5.41719e-18
CB37 B#24 10#12 1.49508e-17
CB38 B#26 10#13 1.0216e-17
CB39 B#28 10#19 1.47708e-17
CB40 B#28 10#18 2.97014e-17
CB41 B#28 10#20 7.41819e-17
CB42 B#28 10#22 1.45912e-17
CB43 B#24 10#18 9.2141e-18
CB44 B#25 MX13/M0#d 4.86311e-18
CB45 MX13/M0#g 7#11 4.07862e-18
CB46 B#28 7#26 2.95761e-18
CB47 MX15/M0#g 7#21 2.63833e-18
CB48 MX13/M0#g 7#26 1.99993e-18
CB49 B#26 7 1.94416e-18
CB50 MX15/M0#g 7#23 1.92154e-18
CB51 B#27 7#21 1.72074e-17
CB52 B#25 7#19 8.52115e-18
CB53 B#27 MX15/M0#d 9.18682e-18
CB54 B#24 7#18 5.76171e-18
CB55 MX15/M0#g MX15/M0#d 8.13429e-18
CB56 B#28 7#18 3.63553e-17
CB57 MX13/M0#g MX13/M0#d 8.23629e-18
CB58 B#27 7#23 1.2718e-17
CB59 B#26 7#18 2.64777e-17
CB60 B#27 7#18 8.07098e-18
CB61 B#27 7#19 3.20269e-17
CB62 B#25 7#26 7.53502e-18
CB63 B#25 7#24 1.83286e-17
CB64 B#26 MX16/M0#g 5.93408e-18
CB65 B#26 MX19/M0#s 4.96286e-18
CB66 MX15/M0#g VSS#12 4.59485e-18
CB67 MX15/M0#g VSS#6 4.25867e-18
CB68 B#27 VSS#12 4.03951e-18
CB69 B#26 VSS#3 2.82093e-18
CB70 MX21/M0#g VSS#12 2.78052e-18
CB71 B#27 VSS#6 2.3171e-18
CB72 MX21/M0#g VSS#3 5.70358e-18
CB73 B#27 MX17/M0#s 1.2833e-17
CB74 MX15/M0#g MX17/M0#s 7.3052e-18
CB75 MX13/M0#g VDD#6 4.75074e-18
CB76 B#25 VDD#12 3.89269e-18
CB77 B#24 MX20/M0#s 3.78501e-18
CB78 MX14/M0#g VDD#12 3.66287e-18
CB79 B#24 VDD#12 2.02561e-18
CB80 MX14/M0#g MX13/M0#s 1.61971e-18
CB81 B#25 VDD 1.98591e-17
CB82 B#24 VDD 1.49565e-17
CB83 MX13/M0#g MX13/M0#s 9.0614e-18
CB84 B#25 MX13/M0#s 1.24349e-17
CB85 MX13/M0#g VDD 1.35549e-17
CB86 MX13/M0#g VDD#12 5.07426e-18
CB87 B#28 VDD 9.02404e-18
CB88 MX14/M0#g VDD 1.57019e-17
CB89 MX14/M0#g VDD#3 6.36261e-18
RgB8 MX13/M0#g B#15 235.012405 $L=0.79 $W=0.15
RgB9 B#15 B#16 34.134449 $L=0.1645 $W=0.27
RgB10 B#16 B#17 345.917053 $L=1.135 $W=0.15
RgB11 B#17 B#18 34.134449 $L=0.1645 $W=0.27
RgB12 B#18 MX15/M0#g 131.791290 $L=0.41 $W=0.15
RgB13 MX14/M0#g B#19 200.877960 $L=0.625 $W=0.15
RgB14 B#19 B#20 34.134449 $L=0.1645 $W=0.27
RgB15 MX21/M0#g B#21 131.791290 $L=0.41 $W=0.15
RgB16 B#21 B#22 34.134449 $L=0.1645 $W=0.27
RfB17 B#23 B#24 3.388236 $L=0.045 $W=0.17
RfB18 B#24 B#25 64.752945 $L=0.86 $W=0.17
RfB19 B#26 B#27 97.129410 $L=1.29 $W=0.17
ReB20 B#28 B 0.002404 $L=0.005 $W=0.26
RjB21 B#23 B#28 152.000000 $A=0.0289
RiB22 B#20 B#24 15.000000 $A=0.0289
RiB23 B#15 B#25 15.000000 $A=0.0289
RiB24 B#22 B#26 15.000000 $A=0.0289
RiB25 B#17 B#27 15.000000 $A=0.0289
*
*|NET 10 1.28723e-15
*|I (MX18/M0#g MX18/M0 g X 0 2.1950 0.7250)
*|I (MX17/M0#d MX17/M0 d X 0 0.9805 0.7250)
*|I (MX16/M0#s MX16/M0 s X 0 1.2595 0.7250)
*|I (MX14/M0#d MX14/M0 d X 0 1.2595 3.3900)
*|I (MM0#d MM0 d X 0 0.9805 3.3900)
*|I (MM1#g MM1 g X 0 2.1950 3.3900)
*|S (10 2.1950 3.3900)
*|S (10#8 2.1950 2.0950)
*|S (10#9 2.1950 1.9300)
*|S (10#11 1.1200 3.3900)
*|S (10#12 1.1200 3.0650)
*|S (10#13 1.1200 0.9300)
*|S (10#15 1.1200 0.7250)
*|S (10#16 2.1950 2.0950)
*|S (10#17 1.9450 2.0950)
*|S (10#18 1.1200 3.0650)
*|S (10#19 1.9450 3.0650)
*|S (10#20 1.9450 2.0950)
*|S (10#21 1.9450 0.9300)
*|S (10#22 1.1200 0.9300)
CG1 MX14/M0#d VSS 1.19774e-19
CG2 MX17/M0#d VSS 2.88987e-18
CG3 MX18/M0#g VSS 2.00845e-17
CG4 10#22 VSS 8.42692e-18
CG5 10#21 VSS 2.30062e-17
CG6 10#20 VSS 8.82295e-18
CG7 10#18 VSS 4.86489e-18
CG8 10#19 VSS 2.16352e-18
CG9 10#16 VSS 1.15848e-17
CG10 10#13 VSS 7.37944e-18
CG11 10#12 VSS 2.45127e-18
CG12 10#17 VSS 4.34056e-18
CG13 10 VSS 1.1195e-18
CG14 10 16 8.13855e-18
CG15 MX18/M0#g 14 6.55345e-18
CG16 10#17 16 3.10509e-18
CG17 10#17 14 1.2442e-18
CG18 10#21 14 1.74637e-17
CG19 10#12 16 2.13586e-18
CG20 10#19 16 2.19582e-17
CG21 10#13 14 1.03554e-18
CG22 10#16 12#17 6.19204e-18
CG23 MX17/M0#d 12#22 5.97658e-18
CG24 10#20 12#19 5.6276e-18
CG25 10#12 MX28/M0#d 5.50044e-18
CG26 MX14/M0#d 12#18 4.89941e-18
CG27 10#20 12#17 4.75792e-18
CG28 10#13 12#15 4.68244e-18
CG29 10 12#19 4.02413e-18
CG30 MX18/M0#g 12#21 3.72723e-18
CG31 10#22 12#15 3.28525e-18
CG32 10#16 12#19 2.81337e-18
CG33 10#18 MX28/M0#d 2.74564e-18
CG34 10#16 12#21 2.42193e-18
CG35 10#21 MX19/M0#g 1.48291e-18
CG36 10#19 12 1.37822e-18
CG37 10 MX28/M0#d 1.3406e-18
CG38 10#21 12#21 4.31629e-17
CG39 10#22 12#22 1.26526e-17
CG40 10#21 12#20 3.70342e-17
CG41 10#21 12#15 6.49704e-18
CG42 10#19 12#18 5.15116e-17
CG43 MX14/M0#d MX28/M0#d 2.08914e-17
CG44 10#19 12#19 6.71627e-17
CG45 10#19 MX28/M0#d 7.75512e-18
CG46 10#18 12#18 1.09326e-17
CG47 MX17/M0#d 12#15 1.43925e-17
CG48 10#16 12#20 1.53563e-17
CG49 10#21 12#22 5.97759e-17
CG50 10#20 12#20 8.93769e-17
CG51 10#13 MX17/M0#s 5.05419e-18
CG52 10#22 MX17/M0#s 3.94889e-18
CG53 MX18/M0#g VSS#2 3.86545e-18
CG54 MX18/M0#g VSS#3 2.96311e-18
CG55 MX18/M0#g VSS#12 2.78052e-18
CG56 10#22 VSS#6 2.74681e-18
CG57 10#21 MX19/M0#s 7.39488e-18
CG58 MX18/M0#g MX19/M0#s 6.90755e-18
CG59 MX17/M0#d MX17/M0#s 1.66841e-17
CG60 MX17/M0#d VSS#6 7.59182e-18
CG61 10#22 VSS#12 1.94768e-17
CG62 MX17/M0#d VSS#12 6.13919e-18
RgG83 10 10#8 397.285736 $L=1.295 $W=0.15
RgG84 10#8 10#9 34.134449 $L=0.1645 $W=0.27
RgG85 10#9 MX18/M0#g 387.251282 $L=1.205 $W=0.15
RfG86 10#11 10#12 24.470589 $L=0.325 $W=0.17
RfG87 10#13 10#15 15.435294 $L=0.205 $W=0.17
RfG88 10#16 10#17 18.823530 $L=0.25 $W=0.17
ReG89 10#18 10#19 0.547977 $L=0.825 $W=0.17
ReG90 10#19 10#20 0.462429 $L=0.97 $W=0.26
ReG91 10#20 10#21 0.556179 $L=1.165 $W=0.26
ReG92 10#21 10#22 0.547977 $L=0.825 $W=0.17
RhG93 MX17/M0#d 10#15 15.000000 $A=0.0289
Rh_2_G94 MX14/M0#d 10#11 15.000000 $A=0.0289
RjG95 10#12 10#18 152.000000 $A=0.0289
RjG96 10#17 10#20 152.000000 $A=0.0289
RjG97 10#13 10#22 152.000000 $A=0.0289
RiG98 10#8 10#16 15.000000 $A=0.0289
RmwG99 MX16/M0#s MX17/M0#d 0.001000 $W=1000000
RmwG100 MM0#d MX14/M0#d 0.001000 $W=1000000
RmwG101 MM1#g 10 0.001000 $W=1000000
*
*|NET 14 1.11995e-16
*|I (MX21/M0#s MX21/M0 s X 0 1.8405 0.7250)
*|I (MX18/M0#d MX18/M0 d X 0 2.1195 0.7250)
*|S (14 1.9800 0.7250)
CI1 14 VSS 4.89052e-18
CI2 14 VSS#3 6.67208e-18
CI3 14 VSS#12 4.81885e-18
CI4 14 MX19/M0#s 1.65867e-17
RmwI121 MX21/M0#s 14 0.001000 $W=1000000
RmwI122 MX18/M0#d 14 0.001000 $W=1000000
*
*|NET 16 1.46215e-16
*|I (MX28/M0#s MX28/M0 s X 0 1.8405 3.3900)
*|I (MM1#s MM1 s X 0 2.1195 3.3900)
*|S (16 1.9800 3.3450)
CI5 16 VSS 1.01269e-17
RmwI123 MX28/M0#s 16 0.001000 $W=1000000
RmwI124 MM1#s 16 0.001000 $W=1000000
*
*|NET VSS 1.2191e-15
*|P (VSS X 0 1.8300 0.0050)
*|I (MX19/M0#s MX19/M0 s X 0 2.6095 0.9350)
*|I (MX18/M0#s MX18/M0 s X 0 2.2705 0.7250)
*|I (MX17/M0#s MX17/M0 s X 0 0.8295 0.7250)
*|I (MX15/M0#s MX15/M0 s X 0 0.5505 0.7250)
*|S (VSS#1 3.6795 0.0000)
*|S (VSS#2 2.4700 0.0000)
*|S (VSS#3 1.8400 0.0000)
*|S (VSS#4 1.8400 0.0000)
*|S (VSS#6 0.6900 0.0000)
*|S (VSS#7 0.0000 0.0000)
*|S (VSS#9 2.4700 0.9350)
*|S (VSS#11 0.6900 0.7250)
*|S (VSS#12 1.8400 0.0000)
RfD39 VSS#1 VSS#2 61.651215 $L=1.2095 $W=0.25
RfD40 VSS#2 VSS#3 31.980810 $L=0.63 $W=0.25
RfD41 VSS#3 VSS#6 58.604813 $L=1.15 $W=0.25
RfD42 VSS#6 VSS#7 35.052811 $L=0.69 $W=0.25
RfD43 VSS#2 VSS#9 63.792149 $L=0.935 $W=0.17
RfD44 VSS#6 VSS#11 47.980385 $L=0.725 $W=0.17
ReD45 VSS#12 VSS 0.003125 $L=0.01 $W=0.4
RhD46 MX19/M0#s VSS#9 7.500000 $A=0.0578
RhD47 MX17/M0#s VSS#11 15.000000 $A=0.0289
Rh_3_D48 VSS#4 VSS#3 2.142857 $A=0.2023
RjD49 VSS#3 VSS#12 21.714285 $A=0.2023
RmwD50 MX18/M0#s MX19/M0#s 0.001000 $W=1000000
RmwD51 MX15/M0#s MX17/M0#s 0.001000 $W=1000000
*
*|NET A 5.28239e-16
*|P (A X 0 0.9350 2.0750)
*|I (MX17/M0#g MX17/M0 g X 0 0.9050 0.7250)
*|I (MM0#g MM0 g X 0 0.9050 3.3900)
*|S (A#8 0.9050 2.0950)
*|S (A#9 0.9050 1.9300)
*|S (A#10 0.9200 2.0950)
*|S (A#11 0.9050 2.0950)
*|S (A#12 0.9200 2.0950)
CA1 MM0#g VSS 5.43787e-18
CA2 MX17/M0#g VSS 1.59394e-17
CA3 A#12 VSS 8.92743e-18
CA4 A#11 VSS 6.96184e-18
CA5 MM0#g 10#12 2.29703e-18
CA6 MX17/M0#g 10#13 2.28782e-18
CA7 A#12 10#12 1.95478e-18
CA8 A#11 10#18 1.64566e-18
CA9 A#12 10#13 1.22929e-18
CA10 MM0#g MX14/M0#d 5.41719e-18
CA11 A#11 10#17 3.11882e-18
CA12 MX17/M0#g MX17/M0#d 3.92323e-18
CA13 A#12 10#18 1.34998e-17
CA14 A#12 10#21 3.00386e-18
CA15 A#12 10#22 1.17505e-17
CA16 A#11 10#20 3.00658e-18
CA17 MX17/M0#g MX15/M0#d 1.54951e-18
CA18 A#12 7#18 1.31158e-17
CA19 A#12 7#26 6.12359e-18
CA20 A#12 7#24 4.24374e-17
CA21 A#12 7#21 2.76435e-17
CA22 A#11 7#19 1.96582e-17
CA23 A#12 7#19 1.37196e-17
CA24 A#11 7#24 7.34462e-18
CA25 A#11 7#18 2.9182e-17
CA26 MX17/M0#g VSS#6 4.25867e-18
CA27 MX17/M0#g VSS#12 3.63758e-18
CA28 A#12 VSS#12 6.47675e-18
CA29 MX17/M0#g MX17/M0#s 6.20184e-18
CA30 A#11 VDD 8.88134e-18
CA31 A#12 VDD#12 7.96572e-18
CA32 MM0#g VDD#6 4.72954e-18
CA33 MM0#g VDD 1.40069e-17
CA34 MM0#g MX13/M0#s 7.70836e-18
CA35 MM0#g VDD#12 3.94039e-18
CA36 A#12 VDD 7.76026e-18
CA37 MM0#g B#24 2.47934e-18
CA38 MX17/M0#g B#27 5.72827e-18
CA39 A#11 B#25 9.2502e-18
CA40 A#11 B#24 1.41462e-17
CA41 A#12 B#27 1.24857e-17
CA42 A#11 B#28 9.01591e-18
CA43 A#12 B#25 1.3975e-17
CA44 A#12 B#24 1.32602e-17
CA45 A#12 B#28 1.21156e-16
RgA1 MM0#g A#8 397.285736 $L=1.295 $W=0.15
RgA2 A#8 A#9 34.134449 $L=0.1645 $W=0.27
RgA3 A#9 MX17/M0#g 387.251282 $L=1.205 $W=0.15
RfA4 A#10 A#11 1.129412 $L=0.015 $W=0.17
ReA5 A A#12 0.009615 $L=0.02 $W=0.26
RjA6 A#10 A#12 152.000000 $A=0.0289
RiA7 A#8 A#11 15.000000 $A=0.0289
*
*|NET Y 7.57637e-16
*|P (Y X 0 3.2350 1.7700)
*|I (MX19/M0#d MX19/M0 d X 0 2.7605 0.9350)
*|I (MX20/M0#d MX20/M0 d X 0 2.7605 3.0400)
*|S (Y#2 2.9000 3.0400)
*|S (Y#3 2.9000 2.9850)
*|S (Y#4 2.9000 0.9400)
*|S (Y#6 2.9000 0.9350)
*|S (Y#7 2.9000 2.9850)
*|S (Y#8 2.9000 2.6100)
*|S (Y#9 3.0295 1.1350)
*|S (Y#10 2.9000 0.9400)
CE1 Y#9 VSS 5.60516e-17
CE2 Y#7 VSS 3.11323e-19
CE3 Y#8 VSS 4.52545e-18
CE4 Y#4 VSS 5.03908e-18
CE5 Y#3 VSS 2.28195e-18
CE6 Y VSS 3.51767e-17
CE7 Y#7 12 3.48702e-18
CE8 Y#4 12#20 2.98824e-18
CE9 Y#8 12#16 2.21969e-18
CE10 Y#4 MX19/M0#g 1.512e-17
CE11 Y#3 12 2.22706e-17
CE12 Y#4 12#21 6.53868e-18
CE13 Y 12#20 3.17472e-17
CE14 Y#8 12#19 2.72365e-17
CE15 Y#9 12#20 3.39507e-17
CE16 Y#8 12#20 2.76695e-17
CE17 Y 12#16 1.11387e-17
CE18 Y#9 12#16 6.18436e-18
CE19 Y#9 MX19/M0#g 4.02792e-18
CE20 Y#7 12#19 7.04051e-17
CE21 Y#4 12#16 1.43024e-17
CE22 Y#3 12#16 5.06312e-18
CE23 Y#3 12#19 9.41346e-18
CE24 Y#9 12#21 5.52305e-17
CE25 Y#9 VSS#1 3.67009e-18
CE26 Y#4 VSS#2 7.72936e-18
CE27 Y#4 VSS#12 6.05993e-18
CE28 Y#4 MX19/M0#s 3.70414e-17
CE29 Y#9 VSS#12 3.24359e-17
CE30 Y#9 MX19/M0#s 8.81142e-18
CE31 Y#9 VSS#2 6.93252e-18
RfE52 Y#2 Y#3 0.863804 $L=0.055 $W=0.17
RfE53 Y#4 Y#6 0.125490 $L=0.005 $W=0.17
ReE54 Y#7 Y#8 0.168243 $L=0.375 $W=0.23
ReE55 Y#8 Y 0.482336 $L=1.16 $W=0.26
ReE56 Y Y#9 0.341524 $L=0.825 $W=0.26
ReE57 Y#9 Y#10 0.043548 $L=0.1295 $W=0.65
RhE58 MX19/M0#d Y#6 7.500000 $A=0.0578
Rh_2_E59 MX20/M0#d Y#2 5.000000 $A=0.0867
RjE60 Y#3 Y#7 50.666668 $A=0.0867
RjE61 Y#4 Y#10 76.000000 $A=0.0578
*
*|NET 7 9.8646e-16
*|I (MX16/M0#g MX16/M0 g X 0 1.3350 0.7250)
*|I (MX15/M0#d MX15/M0 d X 0 0.3995 0.7250)
*|I (MX28/M0#g MX28/M0 g X 0 1.7650 3.3900)
*|I (MX13/M0#d MX13/M0 d X 0 0.3995 3.3900)
*|S (7 1.7650 3.3900)
*|S (7#8 1.7650 1.8400)
*|S (7#9 1.5550 1.8400)
*|S (7#10 1.3350 1.8400)
*|S (7#11 0.2600 3.5800)
*|S (7#13 0.2600 3.3900)
*|S (7#14 0.2600 0.8000)
*|S (7#16 0.2600 0.7250)
*|S (7#17 1.5550 1.8400)
*|S (7#18 1.4700 1.8375)
*|S (7#19 0.2900 1.7550)
*|S (7#20 0.2900 1.7550)
*|S (7#21 0.2900 1.6100)
*|S (7#22 0.2600 0.9445)
*|S (7#23 0.2600 0.8000)
*|S (7#24 0.2900 1.8995)
*|S (7#25 0.2600 3.4350)
*|S (7#26 0.2600 3.5800)
CF1 MX13/M0#d VSS 2.48901e-18
CF2 MX15/M0#d VSS 1.20548e-17
CF3 MX16/M0#g VSS 1.92245e-17
CF4 7#26 VSS 8.89938e-19
CF5 7#24 VSS 1.14179e-17
CF6 7#23 VSS 4.3746e-17
CF7 7#21 VSS 2.38665e-17
CF8 7#18 VSS 2.76865e-17
CF9 7#11 VSS 2.96505e-18
CF10 7#19 VSS 3.17995e-17
CF11 7 VSS 9.88865e-18
CF12 7#18 12#17 3.02324e-18
CF13 7#18 12#20 2.4659e-18
CF14 7 12#18 2.33496e-18
CF15 MX16/M0#g 12#22 1.52823e-18
CF16 7#26 12 1.50726e-18
CF17 7#26 MX28/M0#d 1.25509e-18
CF18 7 MX28/M0#d 6.7905e-18
CF19 7#26 12#18 8.5588e-18
CF20 7#23 12#22 5.09619e-18
CF21 MX16/M0#g 12#15 5.27477e-18
CF22 7 10#19 4.62328e-18
CF23 MX16/M0#g MX17/M0#d 3.92323e-18
CF24 7#18 10#22 3.39896e-18
CF25 7#26 10#12 3.38188e-18
CF26 7#18 10#19 2.8735e-18
CF27 7#26 MX14/M0#d 2.44434e-18
CF28 7#23 10#13 2.40929e-18
CF29 MX16/M0#g 10#13 2.28782e-18
CF30 7#18 10#21 2.15406e-18
CF31 MX15/M0#d 10#13 1.59238e-18
CF32 7 MX14/M0#d 1.06631e-18
CF33 7#18 10#20 1.23081e-17
CF34 7#26 10#18 1.43216e-17
CF35 7#23 10#22 1.55854e-17
CF36 7#19 VSS#12 4.30626e-18
CF37 7#23 VSS#7 3.18019e-18
CF38 MX16/M0#g VSS#12 3.16115e-18
CF39 7#23 VSS#6 2.06898e-18
CF40 MX15/M0#d VSS#6 1.72144e-18
CF41 7#23 MX17/M0#s 5.99912e-18
CF42 MX16/M0#g VSS#3 5.70358e-18
CF43 7#23 VSS#12 2.26156e-17
CF44 MX15/M0#d VSS#12 5.53233e-18
CF45 MX15/M0#d VSS#7 5.82642e-18
CF46 MX15/M0#d MX17/M0#s 2.11329e-17
RgF62 7 7#8 461.135406 $L=1.55 $W=0.15
RgF63 7#8 7#9 35.806923 $L=0.21 $W=0.33
RgF64 7#9 7#10 37.267529 $L=0.22 $W=0.33
RgF65 7#10 MX16/M0#g 321.355408 $L=1.115 $W=0.15
RfF66 7#11 7#13 14.305882 $L=0.19 $W=0.17
RfF67 7#14 7#16 5.647059 $L=0.075 $W=0.17
RfF68 7#17 7#18 4.810695 $L=0.0845 $W=0.335
RfF69 7#18 7#19 88.856613 $L=1.18 $W=0.17
ReF70 7#20 7#21 0.078668 $L=0.1445 $W=0.23
ReF71 7#21 7#22 0.489242 $L=0.665 $W=0.17
ReF72 7#22 7#23 0.083049 $L=0.1445 $W=0.23
ReF73 7#20 7#24 0.078668 $L=0.1445 $W=0.23
ReF74 7#24 7#25 1.128948 $L=1.535 $W=0.17
ReF75 7#25 7#26 0.083049 $L=0.1445 $W=0.23
RhF76 MX15/M0#d 7#16 15.000000 $A=0.0289
Rh_2_F77 MX13/M0#d 7#13 15.000000 $A=0.0289
RjF78 7#19 7#20 152.000000 $A=0.0289
RjF79 7#14 7#23 152.000000 $A=0.0289
RjF80 7#11 7#26 152.000000 $A=0.0289
RiF81 7#9 7#17 15.000000 $A=0.0289
RmwF82 MX28/M0#g 7 0.001000 $W=1000000
*
*|NET 12 1.53196e-15
*|I (MX21/M0#d MX21/M0 d X 0 1.6895 0.7250)
*|I (MX19/M0#g MX19/M0 g X 0 2.6850 0.9350)
*|I (MX16/M0#d MX16/M0 d X 0 1.4105 0.7250)
*|I (MX28/M0#d MX28/M0 d X 0 1.6895 3.3900)
*|I (MX20/M0#g MX20/M0 g X 0 2.6850 3.0400)
*|I (MX14/M0#s MX14/M0 s X 0 1.4105 3.3900)
*|S (12 2.6850 3.0400)
*|S (12#8 2.6850 1.6300)
*|S (12#9 2.6850 1.4650)
*|S (12#10 1.5500 3.4050)
*|S (12#12 1.5500 3.3900)
*|S (12#14 1.5500 0.7250)
*|S (12#15 1.5500 0.6200)
*|S (12#16 2.6850 1.6300)
*|S (12#17 2.4400 1.6300)
*|S (12#18 1.5500 3.4050)
*|S (12#19 2.4400 3.4050)
*|S (12#20 2.4400 1.6300)
*|S (12#21 2.4400 0.6200)
*|S (12#22 1.5500 0.6200)
CH1 MX28/M0#d VSS 3.46411e-18
CH2 MX19/M0#g VSS 1.20217e-17
CH3 MX21/M0#d VSS 3.23584e-19
CH4 12#22 VSS 5.74468e-18
CH5 12#21 VSS 3.449e-18
CH6 12#20 VSS 1.34392e-17
CH7 12#18 VSS 1.99963e-18
CH8 12#19 VSS 5.36966e-18
CH9 12#16 VSS 1.45514e-17
CH10 12#15 VSS 2.85668e-18
CH11 12#17 VSS 9.73096e-18
CH12 12 VSS 4.51007e-18
CH13 MX28/M0#d 16 2.686e-17
CH14 12#18 16 9.06668e-18
CH15 12#22 14 7.59734e-18
CH16 12#19 16 1.54433e-17
CH17 12#21 14 1.36068e-17
CH18 12#15 14 1.77342e-17
CH19 MX19/M0#g 14 1.71788e-18
CH20 12 16 2.68927e-18
CH21 12#15 VSS#12 4.46026e-18
CH22 12#21 VSS#2 4.35486e-18
CH23 12#16 VSS#12 3.46087e-18
CH24 12#21 VSS#3 2.88937e-18
CH25 12#22 VSS#3 7.82356e-18
CH26 MX19/M0#g VSS#2 6.72658e-18
CH27 12#21 MX19/M0#s 3.14352e-17
CH28 12#22 VSS#12 4.26176e-17
CH29 MX19/M0#g MX19/M0#s 1.65092e-17
CH30 MX19/M0#g VSS#12 6.16852e-18
CH31 12#15 VSS#3 9.11167e-18
CH32 12#21 VSS#12 4.49751e-17
CH33 12#17 MX19/M0#s 1.85014e-17
CH34 12#20 MX19/M0#s 1.359e-17
RgH102 12 12#8 434.239075 $L=1.41 $W=0.15
RgH103 12#8 12#9 34.134449 $L=0.1645 $W=0.27
RgH104 12#9 MX19/M0#g 170.351288 $L=0.53 $W=0.15
RfH105 12#10 12#12 1.129412 $L=0.015 $W=0.17
RfH106 12#14 12#15 7.905882 $L=0.105 $W=0.17
RfH107 12#16 12#17 18.447060 $L=0.245 $W=0.17
ReH108 12#18 12#19 0.595771 $L=0.89 $W=0.17
ReH109 12#19 12#20 0.849448 $L=1.775 $W=0.26
ReH110 12#20 12#21 0.481659 $L=1.01 $W=0.26
ReH111 12#21 12#22 0.595771 $L=0.89 $W=0.17
RhH112 MX21/M0#d 12#14 15.000000 $A=0.0289
Rh_2_H113 MX28/M0#d 12#12 15.000000 $A=0.0289
RjH114 12#10 12#18 152.000000 $A=0.0289
RjH115 12#17 12#20 152.000000 $A=0.0289
RjH116 12#15 12#22 152.000000 $A=0.0289
RiH117 12#8 12#16 15.000000 $A=0.0289
RmwH118 MX16/M0#d MX21/M0#d 0.001000 $W=1000000
RmwH119 MX20/M0#g 12 0.001000 $W=1000000
RmwH120 MX14/M0#s MX28/M0#d 0.001000 $W=1000000
*
*|NET VDD 1.06002e-15
*|P (VDD X 0 1.6400 4.1450)
*|I (MX20/M0#s MX20/M0 s X 0 2.6095 3.0400)
*|I (MX13/M0#s MX13/M0 s X 0 0.5505 3.3900)
*|I (MM0#s MM0 s X 0 0.8295 3.3900)
*|I (MM1#d MM1 d X 0 2.2705 3.3900)
*|S (VDD#1 3.6795 4.1400)
*|S (VDD#2 2.4700 4.1400)
*|S (VDD#3 1.8400 4.1400)
*|S (VDD#4 1.8400 4.1400)
*|S (VDD#6 0.6900 4.1400)
*|S (VDD#7 0.0000 4.1400)
*|S (VDD#9 2.4700 3.0400)
*|S (VDD#11 0.6900 3.3900)
*|S (VDD#12 1.8400 4.1400)
CC1 MX13/M0#s VSS 7.46278e-19
CC2 MX20/M0#s VSS 3.8439e-18
CC3 VDD#12 VSS 4.45657e-18
CC4 VDD#6 VSS 5.42544e-18
CC5 VDD#2 VSS 1.42196e-18
CC6 VDD#3 VSS 7.3334e-18
CC7 VDD#3 16 8.59613e-18
CC8 VDD#12 16 5.92559e-18
CC9 VDD 16 6.13935e-18
CC10 MX20/M0#s 16 2.60306e-17
CC11 MX20/M0#s 12#17 4.63569e-18
CC12 VDD#2 12#19 4.25852e-18
CC13 VDD 12#19 4.03353e-18
CC14 MX20/M0#s 12#19 4.84492e-17
CC15 VDD#3 MX28/M0#d 1.03129e-17
CC16 MX20/M0#s 12 2.14666e-17
CC17 VDD 12#20 8.58685e-18
CC18 MX20/M0#s 12#20 1.449e-17
CC19 VDD#12 12 6.29139e-18
CC20 VDD 12 1.15025e-17
CC21 VDD#12 12#19 3.57829e-17
CC22 VDD#12 12#18 3.29164e-17
CC23 VDD#3 12#18 7.59435e-18
CC24 VDD#12 MX28/M0#d 5.81383e-18
CC25 VDD#2 12 7.17149e-18
CC26 VDD#2 10 3.97806e-18
CC27 VDD 10#18 3.70129e-18
CC28 VDD 10#17 3.65392e-18
CC29 VDD#12 10 3.22691e-18
CC30 VDD#3 10 3.06005e-18
CC31 MX20/M0#s 10#20 2.9412e-18
CC32 MX13/M0#s 10#18 2.92702e-18
CC33 VDD#6 10#18 1.54267e-18
CC34 MX20/M0#s 10 8.37556e-18
CC35 VDD 10#12 7.00461e-18
CC36 VDD#12 MX14/M0#d 6.57719e-18
CC37 VDD 10#16 6.34295e-18
CC38 MX13/M0#s MX14/M0#d 2.29203e-17
CC39 MX13/M0#s 10#12 5.44977e-18
CC40 VDD 10 1.79327e-17
CC41 VDD 10#20 7.4753e-18
CC42 VDD 10#19 2.29985e-17
CC43 VDD#12 10#18 1.43114e-17
CC44 VDD#6 MX14/M0#d 8.61543e-18
CC45 MX20/M0#s 10#19 7.11803e-18
CC46 VDD#12 7#11 3.78877e-18
CC47 MX20/M0#s 7#26 3.44193e-18
CC48 VDD#7 7#26 3.30914e-18
CC49 VDD#12 7 3.22691e-18
CC50 VDD 7#11 2.70278e-18
CC51 VDD#6 7#26 2.40036e-18
CC52 VDD#12 7#26 4.01717e-17
CC53 VDD 7#26 6.80924e-17
CC54 VDD 7#24 2.55407e-17
CC55 MX13/M0#s MX13/M0#d 1.58089e-17
CC56 MX13/M0#s 7#26 1.47795e-17
CC57 MX13/M0#s 7#11 8.62029e-18
CC58 VDD 7 1.69644e-17
CC59 VDD#7 7#11 7.39742e-18
CC60 VDD#3 7 7.06165e-18
CC61 VDD#1 Y#8 3.48667e-18
CC62 VDD Y#7 2.6428e-17
CC63 MX20/M0#s Y#7 7.11472e-18
CC64 VDD Y 5.02323e-18
CC65 VDD#2 Y#3 8.70981e-18
CC66 VDD Y#8 4.04858e-17
CC67 MX20/M0#s Y#8 4.50968e-18
CC68 VDD#12 Y#7 2.23677e-17
CC69 VDD#12 Y#3 6.46794e-18
CC70 VDD#2 Y#7 5.45035e-18
CC71 MX20/M0#s Y#3 5.56246e-17
CC72 VDD Y#3 6.59706e-18
CC73 VDD#12 Y#8 1.03116e-17
RfC26 VDD#1 VDD#2 61.651215 $L=1.2095 $W=0.25
RfC27 VDD#2 VDD#3 31.980810 $L=0.63 $W=0.25
RfC28 VDD#3 VDD#6 58.604813 $L=1.15 $W=0.25
RfC29 VDD#6 VDD#7 35.052811 $L=0.69 $W=0.25
RfC30 VDD#2 VDD#9 76.215675 $L=1.1 $W=0.17
RfC31 VDD#6 VDD#11 49.862736 $L=0.75 $W=0.17
ReC32 VDD#12 VDD 0.062500 $L=0.2 $W=0.4
Rh_1_C33 VDD#4 VDD#3 2.142857 $A=0.2023
Rh_2_C34 MX20/M0#s VDD#9 5.000000 $A=0.0867
Rh_2_C35 MX13/M0#s VDD#11 15.000000 $A=0.0289
RjC36 VDD#3 VDD#12 21.714285 $A=0.2023
RmwC37 MM0#s MX13/M0#s 0.001000 $W=1000000
RmwC38 MM1#d MX20/M0#s 0.001000 $W=1000000
*
*Instance Section
*
MX21/M0	MX21/M0#d	MX21/M0#g	MX21/M0#s	VSS	nfet_01v8
+ L=1.5e-07	W=4.2e-07
MX19/M0	MX19/M0#d	MX19/M0#g	MX19/M0#s	VSS	nfet_01v8
+ L=1.5e-07	W=8.4e-07
MX18/M0	MX18/M0#d	MX18/M0#g	MX18/M0#s	VSS	nfet_01v8
+ L=1.5e-07	W=4.2e-07
MX17/M0	MX17/M0#d	MX17/M0#g	MX17/M0#s	VSS	nfet_01v8
+ L=1.5e-07	W=4.2e-07
MX16/M0	MX16/M0#d	MX16/M0#g	MX16/M0#s	VSS	nfet_01v8
+ L=1.5e-07	W=4.2e-07
MX15/M0	MX15/M0#d	MX15/M0#g	MX15/M0#s	VSS	nfet_01v8
+ L=1.5e-07	W=4.2e-07
MX28/M0	MX28/M0#d	MX28/M0#g	MX28/M0#s	VDD	pfet_01v8_hvt
+ L=1.5e-07	W=5.4e-07
MX20/M0	MX20/M0#d	MX20/M0#g	MX20/M0#s	VDD	pfet_01v8_hvt
+ L=1.5e-07	W=1.24e-06
MX14/M0	MX14/M0#d	MX14/M0#g	MX14/M0#s	VDD	pfet_01v8_hvt
+ L=1.5e-07	W=5.4e-07
MX13/M0	MX13/M0#d	MX13/M0#g	MX13/M0#s	VDD	pfet_01v8_hvt
+ L=1.5e-07	W=5.4e-07
MM0	MM0#d	MM0#g	MM0#s	VDD	pfet_01v8_hvt	L=1.5e-07
+ W=5.4e-07
MM1	MM1#d	MM1#g	MM1#s	VDD	pfet_01v8_hvt	L=1.5e-07
+ W=5.4e-07
.ENDS
