*
*|DSPF 1.5
*
*|DATE "Fri Feb 28 11:52:39 2025"
*|VENDOR "Cadence Design Systems"
*|PROGRAM "Cadence Quantus Extraction"
*|VERSION "22.1.0-p089 Linux 64 bit - (Thu Jan 19 11:47:08 PST 2023)"
*|DESIGN "XOR2X4_LP"
*|DIVIDER /
*|DELIMITER #
*|DeviceFingerDelim "@"
*|BUSBIT []
*|GLOBAL_TEMPERATURE 25
*|OPERATING_TEMPERATURE 25
** QRC_TECH_DIR /vols/wfo_devel/projects/reference_SKY130/tech/sky130_release_0.0.4/quantus/extraction/typical 
** HIERARCHICAL_SPLIT_PINS_DELIMITER '%'
** caps2d version: 10
*
.SUBCKT  XOR2X4_LP A B VDD VSS Y
*
*Net Section
*
*|GROUND_NET VSS
*
*|NET VSS 1.36194e-15
*|P (VSS X 0 1.6800 0.0050)
*|I (MX30/M0#s MX30/M0 s X 0 2.6095 0.9350)
*|I (MX30/M1#d MX30/M1 d X 0 3.1905 0.9350)
*|I (MX29/M0#s MX29/M0 s X 0 0.8295 0.7250)
*|I (MX22/M0#s MX22/M0 s X 0 2.2705 0.7250)
*|I (MX18/M0#s MX18/M0 s X 0 0.5505 0.7250)
*|S (VSS#2 3.3300 0.9350)
*|S (VSS#3 3.4625 0.0000)
*|S (VSS#4 2.4700 0.0000)
*|S (VSS#5 1.8400 0.0000)
*|S (VSS#6 1.8400 0.0000)
*|S (VSS#8 0.6900 0.0000)
*|S (VSS#9 0.0000 0.0000)
*|S (VSS#11 2.4700 0.9350)
*|S (VSS#13 0.6900 0.7250)
*|S (VSS#14 1.8400 0.0000)
RfD43 VSS#2 VSS#3 69.844017 $L=0.935 $W=0.17
RfD44 VSS#3 VSS#4 43.330799 $L=0.9925 $W=0.25
RfD45 VSS#4 VSS#5 31.980810 $L=0.63 $W=0.25
RfD46 VSS#5 VSS#8 58.604813 $L=1.15 $W=0.25
RfD47 VSS#8 VSS#9 35.052811 $L=0.69 $W=0.25
RfD48 VSS#4 VSS#11 63.792149 $L=0.935 $W=0.17
RfD49 VSS#8 VSS#13 47.980385 $L=0.725 $W=0.17
ReD50 VSS#14 VSS 0.050000 $L=0.16 $W=0.4
RhD51 MX30/M1#d VSS#2 7.500000 $A=0.0578
RhD52 MX30/M0#s VSS#11 7.500000 $A=0.0578
RhD53 MX29/M0#s VSS#13 15.000000 $A=0.0289
Rh_3_D54 VSS#6 VSS#5 2.142857 $A=0.2023
RjD55 VSS#5 VSS#14 21.714285 $A=0.2023
RmwD56 MX22/M0#s MX30/M0#s 0.001000 $W=1000000
RmwD57 MX18/M0#s MX29/M0#s 0.001000 $W=1000000
*
*|NET 13 1.77527e-15
*|I (MX30/M0#g MX30/M0 g X 0 2.6850 0.9350)
*|I (MX30/M1#g MX30/M1 g X 0 3.1150 0.9350)
*|I (MX28/M0#d MX28/M0 d X 0 1.6895 0.7250)
*|I (MX19/M0#d MX19/M0 d X 0 1.4105 0.7250)
*|I (MX33/M0#d MX33/M0 d X 0 1.4105 3.3500)
*|I (MX23/M0#g MX23/M0 g X 0 2.6850 3.0400)
*|I (MX23/M1#g MX23/M1 g X 0 3.1150 3.0400)
*|I (MM1#s MM1 s X 0 1.6895 3.3500)
*|S (13 2.6850 3.0400)
*|S (13#15 3.1150 1.6300)
*|S (13#16 2.9300 1.6300)
*|S (13#17 2.6850 1.6300)
*|S (13#18 3.1450 1.4650)
*|S (13#19 1.5500 3.4050)
*|S (13#21 1.5500 3.3500)
*|S (13#23 1.5500 0.7250)
*|S (13#24 1.5500 0.6200)
*|S (13#25 2.9300 1.6300)
*|S (13#26 2.8350 1.6300)
*|S (13#27 1.5500 3.4050)
*|S (13#28 2.8350 1.7745)
*|S (13#29 2.8350 1.6300)
*|S (13#30 2.8350 1.4850)
*|S (13#31 1.5500 0.6200)
CH1 MX23/M1#g VSS 1.10154e-18
CH2 MX33/M0#d VSS 1.69925e-18
CH3 MX30/M1#g VSS 1.37415e-17
CH4 MX30/M0#g VSS 1.10089e-17
CH5 13#31 VSS 5.16397e-18
CH6 13#30 VSS 7.14139e-18
CH7 13#29 VSS 5.58594e-18
CH8 13#27 VSS 8.43457e-18
CH9 13#25 VSS 2.59919e-17
CH10 13#24 VSS 1.90749e-18
CH11 13 VSS 1.15054e-18
CH12 13#31 16 6.11757e-18
CH13 13#24 16 1.91299e-17
CH14 13#27 18 4.6107e-18
CH15 MX33/M0#d 18 2.97315e-17
CH16 MX30/M1#g VSS#3 5.02251e-18
CH17 13#30 VSS#14 5.00434e-18
CH18 13#24 VSS#14 4.82805e-18
CH19 MX30/M1#g MX30/M0#s 3.40445e-18
CH20 MX30/M0#g VSS#14 3.23602e-18
CH21 MX30/M0#g MX30/M1#d 2.94304e-18
CH22 MX30/M1#g VSS#14 2.91449e-18
CH23 13#31 VSS#4 2.44948e-18
CH24 13#31 MX29/M0#s 2.32521e-18
CH25 13#27 MX30/M0#s 1.91584e-18
CH26 13#25 VSS#14 1.80966e-18
CH27 13#30 VSS#4 1.65182e-18
CH28 13#25 MX30/M0#s 1.3653e-17
CH29 13#25 MX30/M1#d 1.25738e-17
CH30 MX30/M0#g VSS#4 6.10054e-18
CH31 13#30 MX30/M0#s 2.51299e-17
CH32 MX30/M0#g MX30/M0#s 1.30719e-17
CH33 13#24 VSS#5 9.11167e-18
CH34 13#31 MX30/M0#s 2.10447e-17
CH35 13#31 VSS#14 8.61845e-17
CH36 MX30/M1#g MX30/M1#d 1.50186e-17
CH37 13#31 VSS#5 1.14299e-17
RgH112 MX23/M1#g 13#15 446.508972 $L=1.41 $W=0.15
RgH113 13#15 13#16 16.139698 $L=0.195 $W=0.33
RgH114 13#16 13#17 24.903334 $L=0.245 $W=0.33
RgH115 13#17 MX30/M0#g 218.342422 $L=0.695 $W=0.15
RgH116 13#15 13#18 42.500233 $L=0.1645 $W=0.21
RgH117 13#18 MX30/M1#g 170.364044 $L=0.53 $W=0.15
RgH118 13#17 13 448.095734 $L=1.41 $W=0.15
RfH119 13#19 13#21 4.141177 $L=0.055 $W=0.17
RfH120 13#23 13#24 7.905882 $L=0.105 $W=0.17
RfH121 13#25 13#26 7.152941 $L=0.095 $W=0.17
ReH122 13#27 13#28 2.000100 $L=2.945 $W=0.17
ReH123 13#28 13#29 0.087429 $L=0.1445 $W=0.23
ReH124 13#29 13#30 0.078668 $L=0.1445 $W=0.23
ReH125 13#30 13#31 1.437600 $L=2.18 $W=0.17
RhH126 MX28/M0#d 13#23 15.000000 $A=0.0289
Rh_2_H127 MX33/M0#d 13#21 15.000000 $A=0.0289
RjH128 13#19 13#27 152.000000 $A=0.0289
RjH129 13#26 13#29 152.000000 $A=0.0289
RjH130 13#24 13#31 152.000000 $A=0.0289
RiH131 13#16 13#25 7.500000 $A=0.0578
RmwH132 MX19/M0#d MX28/M0#d 0.001000 $W=1000000
RmwH133 MX23/M0#g 13 0.001000 $W=1000000
RmwH134 MM1#s MX33/M0#d 0.001000 $W=1000000
*
*|NET Y 1.1203e-15
*|P (Y X 0 3.2350 2.6200)
*|I (MX30/M0#d MX30/M0 d X 0 2.7605 0.9350)
*|I (MX30/M1#s MX30/M1 s X 0 3.0395 0.9350)
*|I (MX23/M0#d MX23/M0 d X 0 2.7605 3.0400)
*|I (MX23/M1#s MX23/M1 s X 0 3.0395 3.0400)
*|S (Y#1 2.9000 3.3450)
*|S (Y#3 2.9000 3.0400)
*|S (Y#5 2.9000 0.9350)
*|S (Y#6 2.9000 0.7550)
*|S (Y#7 2.9000 3.3450)
*|S (Y#8 3.2200 3.3475)
*|S (Y#9 3.2200 0.7525)
*|S (Y#10 2.9000 0.7550)
CE1 MX23/M0#d VSS 3.00708e-18
CE2 MX30/M0#d VSS 1.21488e-19
CE3 Y#10 VSS 4.8333e-18
CE4 Y#9 VSS 4.495e-17
CE5 Y#7 VSS 5.76964e-18
CE6 Y#8 VSS 1.88719e-19
CE7 Y#6 VSS 8.47963e-19
CE8 Y VSS 2.11009e-17
CE9 MX23/M0#d 13#25 4.35139e-18
CE10 MX23/M0#d 13#27 4.02565e-18
CE11 Y#6 13#31 3.52118e-18
CE12 Y#10 13#25 2.78327e-18
CE13 Y#8 13#27 2.03784e-18
CE14 Y#8 MX23/M1#g 1.86174e-18
CE15 Y#7 13 1.30961e-18
CE16 Y#10 13#31 1.70855e-17
CE17 MX23/M0#d 13 1.69578e-17
CE18 Y#7 13#29 2.48859e-17
CE19 Y#10 13#30 4.19405e-17
CE20 Y#7 13#27 4.50885e-17
CE21 Y#6 MX30/M0#g 1.15055e-17
CE22 Y#6 MX30/M1#g 1.21811e-17
CE23 Y#6 13#30 1.89181e-17
CE24 Y 13#29 1.53018e-16
CE25 MX23/M0#d 13#29 2.75876e-17
CE26 Y#8 13#29 2.02146e-17
CE27 Y#9 13#30 6.27453e-17
CE28 MX23/M0#d MX23/M1#g 1.80843e-17
CE29 Y#9 13#25 2.4301e-17
CE30 Y#9 13#29 3.26431e-17
CE31 Y#6 13#25 2.25746e-17
CE32 Y#6 VSS#14 5.42655e-18
CE33 Y#10 MX30/M0#s 3.69813e-18
CE34 Y#6 VSS#4 3.07673e-18
CE35 Y#6 VSS#3 3.04672e-18
CE36 Y#10 VSS#4 2.86833e-18
CE37 Y#10 VSS#14 1.77678e-17
CE38 Y#9 MX30/M1#d 5.26268e-17
CE39 Y#6 MX30/M1#d 3.68997e-17
CE40 Y#6 MX30/M0#s 3.694e-17
CE41 Y#9 VSS#14 1.80774e-17
RfE58 Y#1 Y#3 22.964706 $L=0.305 $W=0.17
RfE59 Y#5 Y#6 13.552942 $L=0.18 $W=0.17
ReE60 Y#7 Y#8 0.115610 $L=0.32 $W=0.295
ReE61 Y#8 Y 0.313948 $L=0.7275 $W=0.26
ReE62 Y Y#9 0.862025 $L=1.8675 $W=0.26
ReE63 Y#9 Y#10 0.115610 $L=0.32 $W=0.295
RhE64 MX30/M0#d Y#5 7.500000 $A=0.0578
Rh_2_E65 MX23/M0#d Y#3 5.000000 $A=0.0867
RjE66 Y#1 Y#7 152.000000 $A=0.0289
RjE67 Y#6 Y#10 152.000000 $A=0.0289
RmwE68 MX30/M1#s MX30/M0#d 0.001000 $W=1000000
RmwE69 MX23/M1#s MX23/M0#d 0.001000 $W=1000000
*
*|NET 16 1.1684e-16
*|I (MX29/M0#d MX29/M0 d X 0 0.9805 0.7250)
*|I (MX19/M0#s MX19/M0 s X 0 1.2595 0.7250)
*|S (16 1.1200 0.7250)
CI1 16 VSS 7.93588e-18
CI2 16 VSS#8 7.57002e-18
CI3 16 VSS#14 6.06484e-18
CI4 16 MX29/M0#s 2.13079e-17
RmwI135 MX29/M0#d 16 0.001000 $W=1000000
RmwI136 MX19/M0#s 16 0.001000 $W=1000000
*
*|NET 18 1.46291e-16
*|I (MX33/M0#s MX33/M0 s X 0 1.2595 3.3500)
*|I (MM0#d MM0 d X 0 0.9805 3.3500)
*|S (18 1.1200 3.3500)
CI5 18 VSS 1.00277e-17
RmwI137 MX33/M0#s 18 0.001000 $W=1000000
RmwI138 MM0#d 18 0.001000 $W=1000000
*
*|NET 6 1.21374e-15
*|I (MX29/M0#g MX29/M0 g X 0 0.9050 0.7250)
*|I (MX28/M0#s MX28/M0 s X 0 1.8405 0.7250)
*|I (MX22/M0#d MX22/M0 d X 0 2.1195 0.7250)
*|I (MX32/M0#d MX32/M0 d X 0 2.1195 3.3500)
*|I (MM0#g MM0 g X 0 0.9050 3.3500)
*|I (MM1#d MM1 d X 0 1.8405 3.3500)
*|S (6 0.9050 3.3500)
*|S (6#8 0.9050 2.1800)
*|S (6#9 0.9050 2.0150)
*|S (6#10 1.7250 2.2600)
*|S (6#11 0.9895 2.1800)
*|S (6#12 0.9050 2.1800)
*|S (6#14 1.9800 3.3500)
*|S (6#15 1.9800 3.0650)
*|S (6#16 1.9800 0.9300)
*|S (6#18 1.9800 0.7250)
*|S (6#19 1.9800 3.0650)
*|S (6#20 1.8400 2.9800)
*|S (6#21 1.7250 2.2600)
*|S (6#22 1.8400 2.1450)
*|S (6#23 1.9800 0.9300)
*|S (6#24 1.0250 0.9300)
CG1 MX32/M0#d VSS 1.30502e-18
CG2 MX28/M0#s VSS 2.84779e-18
CG3 MX29/M0#g VSS 1.5623e-17
CG4 6#23 VSS 3.21411e-17
CG5 6#21 VSS 1.19994e-17
CG6 6#20 VSS 8.27889e-18
CG7 6#24 VSS 7.0696e-18
CG8 6#11 VSS 8.37292e-18
CG9 6#10 VSS 2.4447e-18
CG10 6#16 VSS 5.64959e-18
CG11 6#15 VSS 9.52101e-19
CG12 6 VSS 1.02776e-17
CG13 MX29/M0#g 16 6.2236e-18
CG14 6#24 16 1.8757e-17
CG15 6#16 16 1.03554e-18
CG16 6#20 MX33/M0#d 5.14587e-18
CG17 6#21 13#27 4.49146e-18
CG18 6#20 13#29 3.57167e-18
CG19 6#15 13#27 2.21934e-18
CG20 6#16 13#30 1.90301e-18
CG21 6#21 MX33/M0#d 1.78174e-18
CG22 6#10 13#27 1.66412e-18
CG23 6 MX33/M0#d 1.65018e-18
CG24 6#21 13#24 1.53039e-18
CG25 6#21 13#25 1.52207e-18
CG26 6#21 13#29 1.51812e-18
CG27 6#10 13#29 1.23478e-18
CG28 MX32/M0#d 13 1.22399e-18
CG29 6#15 13 1.21219e-18
CG30 6#16 MX30/M0#g 1.13552e-18
CG31 6#23 13#24 1.1033e-17
CG32 6#23 13#30 3.35397e-17
CG33 6#16 13#24 6.80875e-18
CG34 MX32/M0#d MX33/M0#d 2.04682e-17
CG35 6#20 13#27 6.12668e-17
CG36 MX28/M0#s 13#24 1.29774e-17
CG37 6#23 13#31 9.2524e-17
CG38 MX28/M0#s 13#31 1.63094e-17
CG39 MX32/M0#d 13#27 1.96104e-17
CG40 6#15 MX33/M0#d 7.64883e-18
CG41 MX29/M0#g VSS#14 5.02086e-18
CG42 MX28/M0#s VSS#14 4.53296e-18
CG43 MX29/M0#g VSS#8 4.23966e-18
CG44 6#24 MX29/M0#s 3.45074e-18
CG45 6#24 VSS#8 2.40537e-18
CG46 6#23 VSS#5 1.53927e-18
CG47 6#23 MX30/M0#s 8.66663e-18
CG48 MX28/M0#s MX30/M0#s 1.03366e-17
CG49 6#16 MX30/M0#s 8.25544e-18
CG50 6#24 VSS#14 1.74179e-17
CG51 MX29/M0#g MX29/M0#s 6.21439e-18
CG52 MX28/M0#s VSS#5 7.59182e-18
RgG91 6 6#8 357.119080 $L=1.17 $W=0.15
RgG92 6#8 6#9 34.134449 $L=0.1645 $W=0.27
RgG93 6#9 MX29/M0#g 414.564606 $L=1.29 $W=0.15
RfG94 6#10 6#11 55.350876 $L=0.735 $W=0.17
RfG95 6#11 6#12 4.832111 $L=0.0845 $W=0.33
RfG96 6#14 6#15 21.458824 $L=0.285 $W=0.17
RfG97 6#16 6#18 15.435294 $L=0.205 $W=0.17
ReG98 6#19 6#20 0.052587 $L=0.0845 $W=0.355
ReG99 6#20 6#21 0.583827 $L=0.72 $W=0.14
ReG100 6#21 6#22 0.072988 $L=0.1145 $W=0.33
ReG101 6#22 6#23 1.038953 $L=1.215 $W=0.14
ReG102 6#23 6#24 0.702206 $L=0.955 $W=0.17
RhG103 MX28/M0#s 6#18 15.000000 $A=0.0289
Rh_2_G104 MX32/M0#d 6#14 15.000000 $A=0.0289
RjG105 6#15 6#19 152.000000 $A=0.0289
RjG106 6#10 6#21 152.000000 $A=0.0289
RjG107 6#16 6#23 152.000000 $A=0.0289
RiG108 6#8 6#12 15.000000 $A=0.0289
RmwG109 MX22/M0#d MX28/M0#s 0.001000 $W=1000000
RmwG110 MM0#g 6 0.001000 $W=1000000
RmwG111 MM1#d MX32/M0#d 0.001000 $W=1000000
*
*|NET B 9.83217e-16
*|P (B X 0 0.9250 2.6500)
*|I (MX19/M0#g MX19/M0 g X 0 1.3350 0.7250)
*|I (MX18/M0#g MX18/M0 g X 0 0.4750 0.7250)
*|I (MX17/M0#g MX17/M0 g X 0 0.4750 3.3500)
*|I (MM1#g MM1 g X 0 1.7650 3.3500)
*|S (B#15 0.4150 2.7645)
*|S (B#16 0.4150 2.6000)
*|S (B#17 0.4150 2.4350)
*|S (B#18 0.4750 1.3000)
*|S (B#19 0.4750 1.1350)
*|S (B#20 1.3350 1.1350)
*|S (B#21 1.3350 1.3000)
*|S (B#22 1.7650 2.7645)
*|S (B#23 1.7650 2.6000)
*|S (B#24 1.3350 1.3000)
*|S (B#25 0.4750 1.3000)
*|S (B#26 1.7650 2.6000)
*|S (B#27 0.9150 2.6000)
*|S (B#28 0.4150 2.6000)
*|S (B#29 0.9150 2.6000)
CB1 MM1#g VSS 2.17257e-18
CB2 MX18/M0#g VSS 1.46056e-17
CB3 MX19/M0#g VSS 1.95671e-17
CB4 B#29 VSS 7.26307e-18
CB5 B#28 VSS 7.17722e-19
CB6 B#26 VSS 7.94809e-18
CB7 B#25 VSS 1.62138e-17
CB8 B#24 VSS 2.39329e-17
CB9 B#27 VSS 1.16901e-18
CB10 B#24 16 1.4796e-17
CB11 B#27 18 1.25568e-17
CB12 B#29 18 2.15994e-17
CB13 MX18/M0#g 16 1.67862e-18
CB14 MX17/M0#g 18 2.6394e-18
CB15 MX19/M0#g 16 6.2236e-18
CB16 MM1#g 18 1.76764e-18
CB17 B#26 13#27 4.45993e-18
CB18 B#29 MX33/M0#d 3.03212e-18
CB19 B#26 13 2.40126e-18
CB20 B#24 13#30 1.75373e-18
CB21 MX19/M0#g 13#31 1.52823e-18
CB22 MX19/M0#g 13#24 5.28733e-18
CB23 B#24 13#24 5.74084e-18
CB24 B#29 13#27 1.14081e-17
CB25 MM1#g MX33/M0#d 7.78062e-18
CB26 B#26 MX33/M0#d 1.17082e-17
CB27 B#29 6#24 4.30244e-18
CB28 B#24 MX29/M0#g 4.2898e-18
CB29 B#27 6 3.92035e-18
CB30 MM1#g 6#15 3.05475e-18
CB31 B#25 MX29/M0#g 2.1305e-18
CB32 B#27 6#10 2.08716e-18
CB33 B#29 6#15 1.22216e-18
CB34 B#29 6 1.17859e-18
CB35 B#27 6#24 1.09919e-18
CB36 B#26 6#10 4.99537e-17
CB37 B#26 6#21 2.08611e-17
CB38 B#24 6#24 1.18262e-17
CB39 B#29 6#11 2.7852e-17
CB40 B#26 6#15 5.66214e-18
CB41 B#29 6#21 2.67443e-17
CB42 MM1#g MX32/M0#d 5.67777e-18
CB43 B#29 6#20 1.63367e-17
CB44 B#27 6#11 4.50988e-17
CB45 B#26 6#20 8.19003e-18
CB46 B#24 6#23 1.56223e-17
CB47 B#26 1 4.66041e-18
CB48 B#29 1#19 4.62862e-18
CB49 MX17/M0#g 1#11 4.36527e-18
CB50 B#29 MX17/M0#d 3.92648e-18
CB51 B#27 1#19 3.39829e-18
CB52 B#29 1#18 2.76845e-18
CB53 MX18/M0#g 1#21 2.63833e-18
CB54 MX18/M0#g 1#23 2.04279e-18
CB55 MX17/M0#g 1#26 1.98434e-18
CB56 MX17/M0#g 1#19 1.74109e-18
CB57 B#29 1#26 3.84078e-17
CB58 B#25 1#19 3.23369e-17
CB59 B#27 1 5.01641e-18
CB60 B#24 1#18 2.98507e-17
CB61 B#25 1#21 1.66015e-17
CB62 B#28 1#24 2.17663e-17
CB63 B#28 1#26 8.62022e-18
CB64 B#25 1#23 1.65325e-17
CB65 B#28 MX17/M0#d 9.88249e-18
CB66 B#29 1#24 3.61816e-17
CB67 MX17/M0#g MX17/M0#d 9.86923e-18
CB68 B#28 1#19 9.68807e-18
CB69 B#25 MX18/M0#d 9.18682e-18
CB70 MX18/M0#g MX18/M0#d 8.13429e-18
CB71 MX18/M0#g VSS#14 4.59485e-18
CB72 MX18/M0#g VSS#8 4.25867e-18
CB73 B#25 VSS#14 3.5701e-18
CB74 MX19/M0#g VSS#14 3.12603e-18
CB75 B#24 VSS#14 2.56475e-18
CB76 B#24 MX30/M0#s 1.94381e-18
CB77 B#25 VSS#8 1.50176e-18
CB78 MX19/M0#g MX29/M0#s 1.31244e-18
CB79 MX18/M0#g MX29/M0#s 7.3052e-18
CB80 B#25 MX29/M0#s 1.2833e-17
CB81 MX19/M0#g VSS#5 5.70358e-18
CB82 MX17/M0#g VDD#8 4.78489e-18
CB83 B#29 VDD#8 3.55289e-18
CB84 B#27 VDD#14 3.34212e-18
CB85 MM1#g VDD#14 3.33572e-18
CB86 B#28 VDD#14 2.67022e-18
CB87 B#29 MX32/M0#s 2.56485e-18
CB88 MM1#g MX32/M0#s 1.79102e-18
CB89 B#26 VDD 1.37575e-17
CB90 B#26 MX32/M0#s 7.79434e-18
CB91 B#29 VDD#14 2.09354e-17
CB92 MX17/M0#g VDD#14 5.33671e-18
CB93 B#27 MX17/M0#s 1.03387e-17
CB94 MM1#g VDD#5 6.40833e-18
CB95 B#28 MX17/M0#s 7.51243e-18
CB96 MM1#g VDD 1.67806e-17
CB97 B#29 VDD 8.52354e-18
CB98 MX17/M0#g VDD 1.34764e-17
CB99 B#28 VDD 1.71675e-17
CB100 B#29 MX17/M0#s 1.21898e-17
CB101 MX17/M0#g MX17/M0#s 1.0242e-17
CB102 B#27 VDD 1.07075e-17
RgB9 MX17/M0#g B#15 188.024628 $L=0.585 $W=0.15
RgB10 B#15 B#16 38.857975 $L=0.1645 $W=0.27
RgB11 B#16 B#17 29.410927 $L=0.1645 $W=0.27
RgB12 B#17 B#18 345.917053 $L=1.135 $W=0.15
RgB13 B#18 B#19 34.134449 $L=0.1645 $W=0.27
RgB14 B#19 MX18/M0#g 131.791290 $L=0.41 $W=0.15
RgB15 MX19/M0#g B#20 131.791290 $L=0.41 $W=0.15
RgB16 B#20 B#21 34.134449 $L=0.1645 $W=0.27
RgB17 MM1#g B#22 188.024628 $L=0.585 $W=0.15
RgB18 B#22 B#23 34.134449 $L=0.1645 $W=0.27
RfB19 B#24 B#25 64.752945 $L=0.86 $W=0.17
RfB20 B#26 B#27 64.000000 $L=0.85 $W=0.17
RfB21 B#27 B#28 37.647057 $L=0.5 $W=0.17
ReB22 B#29 B 0.024038 $L=0.05 $W=0.26
RjB23 B#27 B#29 152.000000 $A=0.0289
RiB24 B#21 B#24 15.000000 $A=0.0289
RiB25 B#18 B#25 15.000000 $A=0.0289
RiB26 B#23 B#26 15.000000 $A=0.0289
RiB27 B#16 B#28 15.000000 $A=0.0289
*
*|NET A 4.80779e-16
*|P (A X 0 2.3150 1.8700)
*|I (MX22/M0#g MX22/M0 g X 0 2.1950 0.7250)
*|I (MX32/M0#g MX32/M0 g X 0 2.1950 3.3500)
*|S (A#8 2.2550 2.2595)
*|S (A#9 2.2550 2.0975)
*|S (A#10 2.2550 1.9300)
*|S (A#11 2.3000 2.1000)
*|S (A#12 2.2550 2.0975)
*|S (A#13 2.3000 2.1000)
CA1 MX32/M0#g VSS 1.11065e-18
CA2 MX22/M0#g VSS 1.94004e-17
CA3 A#12 VSS 1.62776e-17
CA4 A VSS 2.33866e-17
CA5 A#12 13#31 1.52948e-18
CA6 MX32/M0#g MX33/M0#d 1.5122e-18
CA7 MX22/M0#g 13#24 9.8955e-19
CA8 MX32/M0#g 13#27 3.5469e-18
CA9 A 13#31 1.12109e-17
CA10 A 13#30 1.81474e-17
CA11 A 13#29 7.8845e-17
CA12 A 13#27 1.23913e-17
CA13 A#12 13#29 6.66473e-18
CA14 A 13#25 1.13239e-17
CA15 A#12 13#27 3.46352e-18
CA16 MX22/M0#g 13#31 2.88573e-18
CA17 A#12 6#23 3.73467e-18
CA18 A 6#10 5.73284e-18
CA19 A 6#23 2.37261e-17
CA20 A 6#21 8.5991e-17
CA21 A#12 6#10 1.15903e-17
CA22 MX32/M0#g MX32/M0#d 5.97407e-18
CA23 A#12 6#21 5.61e-18
CA24 MX32/M0#g 6#15 3.31939e-18
CA25 MX22/M0#g MX28/M0#s 4.13622e-18
CA26 MX22/M0#g 6#16 2.4869e-18
CA27 A#12 6#20 4.12676e-18
CA28 A VSS#4 1.23908e-18
CA29 MX22/M0#g MX30/M0#s 6.9277e-18
CA30 MX22/M0#g VSS#4 3.7046e-18
CA31 A MX30/M0#s 3.54745e-18
CA32 MX22/M0#g VSS#14 2.78052e-18
CA33 A#12 MX30/M0#s 3.63642e-18
CA34 MX22/M0#g VSS#5 2.94249e-18
CA35 A VDD#4 1.11961e-18
CA36 MX32/M0#g VDD 1.78537e-17
CA37 MX32/M0#g VDD#14 3.33572e-18
CA38 A MX32/M0#s 1.98881e-17
CA39 A#12 MX32/M0#s 1.40869e-17
CA40 MX32/M0#g MX32/M0#s 9.36909e-18
CA41 MX32/M0#g VDD#5 3.0823e-18
CA42 A VDD 4.60602e-18
CA43 A#12 VDD 9.53884e-18
CA44 MX32/M0#g VDD#4 4.00699e-18
RgA1 MX32/M0#g A#8 350.297943 $L=1.09 $W=0.15
RgA2 A#8 A#9 38.411682 $L=0.162 $W=0.27
RgA3 A#9 A#10 29.857224 $L=0.167 $W=0.27
RgA4 A#10 MX22/M0#g 387.251282 $L=1.205 $W=0.15
RfA5 A#11 A#12 3.388236 $L=0.045 $W=0.17
ReA6 A A#13 0.110577 $L=0.23 $W=0.26
RjA7 A#11 A#13 152.000000 $A=0.0289
RiA8 A#9 A#12 15.000000 $A=0.02805
*
*|NET 1 9.62216e-16
*|I (MX28/M0#g MX28/M0 g X 0 1.7650 0.7250)
*|I (MX18/M0#d MX18/M0 d X 0 0.3995 0.7250)
*|I (MX33/M0#g MX33/M0 g X 0 1.3350 3.3500)
*|I (MX17/M0#d MX17/M0 d X 0 0.3995 3.3500)
*|S (1 1.3350 3.3500)
*|S (1#8 1.7650 1.8400)
*|S (1#9 1.5450 1.8400)
*|S (1#10 1.3350 1.8400)
*|S (1#11 0.2600 3.5850)
*|S (1#13 0.2600 3.3500)
*|S (1#14 0.2600 0.8000)
*|S (1#16 0.2600 0.7250)
*|S (1#17 1.5450 1.8400)
*|S (1#18 1.4600 1.8375)
*|S (1#19 0.2900 1.7550)
*|S (1#20 0.2900 1.7550)
*|S (1#21 0.2900 1.6100)
*|S (1#22 0.2600 0.9445)
*|S (1#23 0.2600 0.8000)
*|S (1#24 0.2900 1.8995)
*|S (1#25 0.2600 3.4400)
*|S (1#26 0.2600 3.5850)
CF1 MX17/M0#d VSS 1.08685e-19
CF2 MX18/M0#d VSS 1.13384e-17
CF3 MX28/M0#g VSS 1.9788e-17
CF4 1#26 VSS 3.46867e-18
CF5 1#24 VSS 1.40225e-17
CF6 1#23 VSS 4.43715e-17
CF7 1#21 VSS 2.78688e-17
CF8 1#18 VSS 3.1705e-17
CF9 1#11 VSS 1.027e-19
CF10 1#19 VSS 3.2472e-17
CF11 1 VSS 4.25444e-18
CF12 1 18 8.72526e-18
CF13 1#26 18 3.30223e-18
CF14 1#21 13#25 3.18013e-18
CF15 1#18 13#24 2.96881e-18
CF16 1#18 13#25 1.87305e-18
CF17 MX28/M0#g 13#31 1.36298e-18
CF18 1#18 13#29 1.25703e-18
CF19 MX18/M0#d 13#31 1.20223e-18
CF20 1#23 13#31 5.09619e-18
CF21 1#26 13#27 6.10248e-18
CF22 MX28/M0#g 13#24 5.27477e-18
CF23 1 MX33/M0#d 7.79317e-18
CF24 MX28/M0#g MX28/M0#s 3.93271e-18
CF25 1#21 6#21 3.67148e-18
CF26 1#18 6#24 3.58651e-18
CF27 MX28/M0#g 6#23 3.42105e-18
CF28 1#18 6#23 2.75332e-18
CF29 MX28/M0#g 6#16 2.28782e-18
CF30 MX28/M0#g 6#10 1.65293e-18
CF31 MX18/M0#d MX29/M0#g 1.54951e-18
CF32 1#24 6#21 1.49055e-18
CF33 MX17/M0#d 6 1.33821e-18
CF34 1 MX32/M0#d 1.11955e-18
CF35 1#11 6 8.34231e-19
CF36 1 6#10 8.0504e-19
CF37 MX18/M0#d 6#24 7.42634e-19
CF38 1#19 MX29/M0#g 7.2716e-19
CF39 1#24 6#11 1.13904e-17
CF40 1#18 6#11 2.32166e-17
CF41 1#19 6#11 1.42876e-17
CF42 1#18 6#10 2.96976e-17
CF43 1#23 6#24 1.30879e-17
CF44 1#18 6#21 2.39988e-17
CF45 1#19 VSS#14 4.39852e-18
CF46 1#23 VSS#9 3.18019e-18
CF47 MX28/M0#g VSS#14 2.78052e-18
CF48 1#23 VSS#8 2.06898e-18
CF49 1#23 MX30/M0#s 1.75642e-18
CF50 MX18/M0#d VSS#8 1.72144e-18
CF51 MX18/M0#d VSS#14 5.53233e-18
CF52 MX18/M0#d MX29/M0#s 2.11329e-17
CF53 1#23 VSS#14 2.26156e-17
CF54 MX28/M0#g VSS#5 6.57621e-18
CF55 1#23 MX29/M0#s 6.35053e-18
CF56 MX18/M0#d VSS#9 5.82642e-18
RgF70 MX28/M0#g 1#8 321.355408 $L=1.115 $W=0.15
RgF71 1#8 1#9 37.267529 $L=0.22 $W=0.33
RgF72 1#9 1#10 35.806923 $L=0.21 $W=0.33
RgF73 1#10 1 448.282074 $L=1.51 $W=0.15
RfF74 1#11 1#13 17.694118 $L=0.235 $W=0.17
RfF75 1#14 1#16 5.647059 $L=0.075 $W=0.17
RfF76 1#17 1#18 4.810695 $L=0.0845 $W=0.335
RfF77 1#18 1#19 88.103668 $L=1.17 $W=0.17
ReF78 1#20 1#21 0.078668 $L=0.1445 $W=0.23
ReF79 1#21 1#22 0.489242 $L=0.665 $W=0.17
ReF80 1#22 1#23 0.083049 $L=0.1445 $W=0.23
ReF81 1#20 1#24 0.078668 $L=0.1445 $W=0.23
ReF82 1#24 1#25 1.132625 $L=1.54 $W=0.17
ReF83 1#25 1#26 0.083049 $L=0.1445 $W=0.23
RhF84 MX18/M0#d 1#16 15.000000 $A=0.0289
Rh_2_F85 MX17/M0#d 1#13 15.000000 $A=0.0289
RjF86 1#19 1#20 152.000000 $A=0.0289
RjF87 1#14 1#23 152.000000 $A=0.0289
RjF88 1#11 1#26 152.000000 $A=0.0289
RiF89 1#9 1#17 15.000000 $A=0.0289
RmwF90 MX33/M0#g 1 0.001000 $W=1000000
*
*|NET VDD 1.23094e-15
*|P (VDD X 0 1.5750 4.1450)
*|I (MX32/M0#s MX32/M0 s X 0 2.2705 3.3500)
*|I (MX23/M0#s MX23/M0 s X 0 2.6095 3.0400)
*|I (MX23/M1#d MX23/M1 d X 0 3.1905 3.0400)
*|I (MX17/M0#s MX17/M0 s X 0 0.5505 3.3500)
*|I (MM0#s MM0 s X 0 0.8295 3.3500)
*|S (VDD#2 3.3300 3.0400)
*|S (VDD#3 3.4625 4.1400)
*|S (VDD#4 2.4700 4.1400)
*|S (VDD#5 1.8400 4.1400)
*|S (VDD#6 1.8400 4.1400)
*|S (VDD#8 0.6900 4.1400)
*|S (VDD#9 0.0000 4.1400)
*|S (VDD#11 2.4700 3.0400)
*|S (VDD#13 0.6900 3.3500)
*|S (VDD#14 1.8400 4.1400)
CC1 MX17/M0#s VSS 2.55407e-18
CC2 MX23/M1#d VSS 2.25597e-18
CC3 MX32/M0#s VSS 3.38807e-18
CC4 VDD#14 VSS 3.54113e-18
CC5 VDD#8 VSS 1.50267e-18
CC6 VDD#4 VSS 1.38349e-18
CC7 VDD#3 VSS 2.46001e-18
CC8 VDD#5 VSS 4.73841e-18
CC9 VDD VSS 4.87842e-18
CC10 VDD#8 18 9.61622e-18
CC11 VDD#14 18 7.51979e-18
CC12 VDD 18 3.94558e-18
CC13 MX32/M0#s 18 1.20971e-18
CC14 MX17/M0#s 18 2.90386e-17
CC15 MX32/M0#s 13#29 5.9977e-18
CC16 VDD#14 MX33/M0#d 5.46258e-18
CC17 MX32/M0#s MX23/M1#g 5.10806e-18
CC18 VDD#3 MX23/M1#g 4.95219e-18
CC19 MX23/M1#d 13 4.34823e-18
CC20 VDD 13#29 4.09166e-18
CC21 VDD#4 13 3.94194e-18
CC22 VDD#4 13#27 3.91513e-18
CC23 MX32/M0#s 13#25 3.29497e-18
CC24 VDD#14 MX23/M1#g 3.07639e-18
CC25 MX23/M1#d 13#25 2.61692e-18
CC26 MX32/M0#s 13#30 2.47596e-18
CC27 VDD#14 13 2.43053e-18
CC28 MX23/M1#d 13#29 2.24022e-18
CC29 VDD#14 13#29 2.11209e-18
CC30 VDD#14 13#27 6.85022e-17
CC31 MX23/M1#d MX23/M1#g 2.15848e-17
CC32 VDD#5 13#27 1.11268e-17
CC33 MX32/M0#s 13 1.89048e-17
CC34 MX32/M0#s 13#27 5.04892e-17
CC35 VDD#5 MX33/M0#d 8.59438e-18
CC36 VDD MX23/M1#g 1.22755e-17
CC37 VDD 13 7.04891e-18
CC38 VDD#14 MX32/M0#d 5.53976e-18
CC39 VDD#8 6 4.78489e-18
CC40 VDD 6#15 4.33169e-18
CC41 VDD#14 6 3.99381e-18
CC42 VDD 6#23 3.84622e-18
CC43 MX32/M0#s 6#21 2.94947e-18
CC44 VDD 6#10 1.44336e-17
CC45 VDD 6#20 9.11596e-18
CC46 MX17/M0#s 6 8.74228e-18
CC47 VDD 6#11 1.33594e-17
CC48 MX32/M0#s 6#20 7.27275e-18
CC49 VDD#5 MX32/M0#d 8.61543e-18
CC50 MX32/M0#s MX32/M0#d 1.64905e-17
CC51 VDD 6 1.39074e-17
CC52 MX32/M0#s 6#15 1.05849e-17
CC53 VDD#14 1#11 3.90949e-18
CC54 VDD#9 1#26 3.29227e-18
CC55 VDD 1#11 2.84903e-18
CC56 VDD#8 1#11 2.23134e-18
CC57 VDD#9 1#11 7.55222e-18
CC58 MX17/M0#s 1#11 9.62132e-18
CC59 MX17/M0#s MX17/M0#d 1.85196e-17
CC60 VDD#14 1 4.88293e-18
CC61 VDD#14 1#26 4.08646e-17
CC62 VDD#8 1#26 5.78463e-18
CC63 VDD 1#26 5.17806e-17
CC64 VDD 1#24 2.44099e-17
CC65 VDD#5 1 6.38697e-18
CC66 MX17/M0#s 1#26 1.25606e-17
CC67 VDD 1 1.61706e-17
CC68 MX32/M0#s Y#7 3.88806e-18
CC69 VDD#4 MX23/M0#d 3.46701e-18
CC70 VDD#4 Y#7 2.75959e-18
CC71 VDD#3 MX23/M0#d 2.35353e-18
CC72 VDD#3 Y#8 2.0914e-18
CC73 VDD#14 Y#7 1.85338e-17
CC74 MX23/M1#d Y#8 3.91742e-17
CC75 MX32/M0#s MX23/M0#d 5.57598e-17
CC76 MX23/M1#d MX23/M0#d 5.42033e-17
CC77 VDD#14 MX23/M0#d 6.25242e-18
CC78 VDD Y#8 2.04055e-17
CC79 MX23/M1#d Y 3.25977e-17
CC80 VDD Y 3.11974e-17
CC81 VDD#14 Y#8 1.67492e-17
RfC28 VDD#2 VDD#3 82.267548 $L=1.1 $W=0.17
RfC29 VDD#3 VDD#4 43.330799 $L=0.9925 $W=0.25
RfC30 VDD#4 VDD#5 31.980810 $L=0.63 $W=0.25
RfC31 VDD#5 VDD#8 58.604813 $L=1.15 $W=0.25
RfC32 VDD#8 VDD#9 35.052811 $L=0.69 $W=0.25
RfC33 VDD#4 VDD#11 76.215675 $L=1.1 $W=0.17
RfC34 VDD#8 VDD#13 52.874500 $L=0.79 $W=0.17
ReC35 VDD#14 VDD 0.082813 $L=0.265 $W=0.4
Rh_1_C36 VDD#6 VDD#5 2.142857 $A=0.2023
Rh_2_C37 MX23/M1#d VDD#2 5.000000 $A=0.0867
Rh_2_C38 MX32/M0#s VDD#11 5.000000 $A=0.0867
Rh_2_C39 MX17/M0#s VDD#13 15.000000 $A=0.0289
RjC40 VDD#5 VDD#14 21.714285 $A=0.2023
RmwC41 MX23/M0#s MX32/M0#s 0.001000 $W=1000000
RmwC42 MM0#s MX17/M0#s 0.001000 $W=1000000
*
*Instance Section
*
MX30/M0	MX30/M0#d	MX30/M0#g	MX30/M0#s	VSS	nfet_01v8
+ L=1.5e-07	W=8.4e-07
MX30/M1	MX30/M1#d	MX30/M1#g	MX30/M1#s	VSS	nfet_01v8
+ L=1.5e-07	W=8.4e-07
MX29/M0	MX29/M0#d	MX29/M0#g	MX29/M0#s	VSS	nfet_01v8
+ L=1.5e-07	W=4.2e-07
MX28/M0	MX28/M0#d	MX28/M0#g	MX28/M0#s	VSS	nfet_01v8
+ L=1.5e-07	W=4.2e-07
MX22/M0	MX22/M0#d	MX22/M0#g	MX22/M0#s	VSS	nfet_01v8
+ L=1.5e-07	W=4.2e-07
MX19/M0	MX19/M0#d	MX19/M0#g	MX19/M0#s	VSS	nfet_01v8
+ L=1.5e-07	W=4.2e-07
MX18/M0	MX18/M0#d	MX18/M0#g	MX18/M0#s	VSS	nfet_01v8
+ L=1.5e-07	W=4.2e-07
MX33/M0	MX33/M0#d	MX33/M0#g	MX33/M0#s	VDD	pfet_01v8_hvt
+ L=1.5e-07	W=6.2e-07
MX32/M0	MX32/M0#d	MX32/M0#g	MX32/M0#s	VDD	pfet_01v8_hvt
+ L=1.5e-07	W=6.2e-07
MX23/M0	MX23/M0#d	MX23/M0#g	MX23/M0#s	VDD	pfet_01v8_hvt
+ L=1.5e-07	W=1.24e-06
MX23/M1	MX23/M1#d	MX23/M1#g	MX23/M1#s	VDD	pfet_01v8_hvt
+ L=1.5e-07	W=1.24e-06
MX17/M0	MX17/M0#d	MX17/M0#g	MX17/M0#s	VDD	pfet_01v8_hvt
+ L=1.5e-07	W=6.2e-07
MM0	MM0#d	MM0#g	MM0#s	VDD	pfet_01v8_hvt	L=1.5e-07
+ W=6.2e-07
MM1	MM1#d	MM1#g	MM1#s	VDD	pfet_01v8_hvt	L=1.5e-07
+ W=6.2e-07
.ENDS
