// Point Netlist Generated on: Apr  1 14:50:44 2025
// Generated for: spectre
// Design Netlist Generated on: Apr  1 14:50:40 2025
// Design library name: work
// Design cell name: allCells_LP
// Design view name: schematic
simulator lang=spectre
global 0 VSS! VDD!
include "/vols/wfo_devel/projects/reference_SKY130/tech/sky130_release_0.0.5/libs/sky130_fd_pr_main/../../models/sky130.lib.spice" section=tt

// Library name: sky130_scl_9T_LP
// Cell name: INVX2_LP
// View name: schematic
subckt INVX2_LP A inh_VDD inh_VSS Y
    mn0 (Y A inh_VSS inh_VSS) nfet_01v8 w=(360n) l=150n as=95.4f ad=58.8f \
        ps=1.25u pd=700n m=(1)*(2)
    mp0 (Y A inh_VDD inh_VDD) pfet_01v8_hvt w=(620n) l=150n as=164.3f \
        ad=86.8f ps=1.77u pd=900n m=(1)*(2)
ends INVX2_LP
// End of subcircuit definition.

// Library name: sky130_scl_9T_LP
// Cell name: OAI221X2_LP
// View name: schematic
subckt OAI221X2_LP A0 A1 B0 B1 C0 inh_VDD inh_VSS Y
    mn4 (Y C0 net132 inh_VSS) nfet_01v8 w=(840n) l=150n as=222.6f \
        ad=222.6f ps=2.21u pd=2.21u m=(1)*(1)
    mn0 (net128 A0 inh_VSS inh_VSS) nfet_01v8 w=(840n) l=150n as=222.6f \
        ad=222.6f ps=2.21u pd=2.21u m=(1)*(1)
    mn1 (net128 A1 inh_VSS inh_VSS) nfet_01v8 w=(840n) l=150n as=222.6f \
        ad=222.6f ps=2.21u pd=2.21u m=(1)*(1)
    mn2 (net132 B0 net128 inh_VSS) nfet_01v8 w=(840n) l=150n as=222.6f \
        ad=222.6f ps=2.21u pd=2.21u m=(1)*(1)
    mn3 (net132 B1 net128 inh_VSS) nfet_01v8 w=(840n) l=150n as=222.6f \
        ad=222.6f ps=2.21u pd=2.21u m=(1)*(1)
    mp3 (Y B1 net123 inh_VDD) pfet_01v8_hvt w=(1.24u) l=150n as=328.6f \
        ad=328.6f ps=3.01u pd=3.01u m=(1)*(1)
    mp0 (net115 A0 inh_VDD inh_VDD) pfet_01v8_hvt w=(1.24u) l=150n \
        as=328.6f ad=328.6f ps=3.01u pd=3.01u m=(1)*(1)
    mp1 (Y A1 net115 inh_VDD) pfet_01v8_hvt w=1.13u l=150n as=328.6f \
        ad=173.6f ps=3.01u pd=1.52u m=1
    mp2 (net123 B0 inh_VDD inh_VDD) pfet_01v8_hvt w=(1.24u) l=150n \
        as=328.6f ad=328.6f ps=3.01u pd=3.01u m=(1)*(1)
    mp4 (Y C0 inh_VDD inh_VDD) pfet_01v8_hvt w=(1.24u) l=150n as=328.6f \
        ad=328.6f ps=3.01u pd=3.01u m=(1)*(1)
ends OAI221X2_LP
// End of subcircuit definition.

// Library name: sky130_scl_9T_LP
// Cell name: INVX16_LP
// View name: schematic
subckt INVX16_LP A inh_VDD inh_VSS Y
    mn0 (Y A inh_VSS inh_VSS) nfet_01v8 w=(840n) l=150n as=143.85f \
        ad=117.6f ps=1.3925u pd=1.12u m=(1)*(8)
    mp0 (Y A inh_VDD inh_VDD) pfet_01v8_hvt w=1.13u l=150n as=212.35f \
        ad=173.6f ps=1.8925u pd=1.52u m=2
ends INVX16_LP
// End of subcircuit definition.

// Library name: sky130_scl_9T_LP
// Cell name: OR4X2_LP
// View name: schematic
subckt OR4X2_LP A B C D inh_VDD inh_VSS Y
    mn4 (Y n0 inh_VSS inh_VSS) nfet_01v8 w=(840n) l=150n as=222.6f \
        ad=222.6f ps=2.21u pd=2.21u m=(1)*(1)
    mn3 (n0 D inh_VSS inh_VSS) nfet_01v8 w=(360n) l=150n as=95.4f ad=95.4f \
        ps=1.25u pd=1.25u m=(1)*(1)
    mn0 (n0 A inh_VSS inh_VSS) nfet_01v8 w=(360n) l=150n as=95.4f ad=95.4f \
        ps=1.25u pd=1.25u m=(1)*(1)
    mn2 (n0 C inh_VSS inh_VSS) nfet_01v8 w=(360n) l=150n as=95.4f ad=95.4f \
        ps=1.25u pd=1.25u m=(1)*(1)
    mn1 (n0 B inh_VSS inh_VSS) nfet_01v8 w=(360n) l=150n as=95.4f ad=95.4f \
        ps=1.25u pd=1.25u m=(1)*(1)
    mp4 (Y n0 inh_VDD inh_VDD) pfet_01v8_hvt w=625n l=150n as=328.6f \
        ad=173.6f ps=3.01u pd=1.52u m=1
    mp0 (n1 A inh_VDD inh_VDD) pfet_01v8_hvt w=(360n) l=150n as=95.4f \
        ad=95.4f ps=1.25u pd=1.25u m=(1)*(1)
    mp3 (n0 D n3 inh_VDD) pfet_01v8_hvt w=625n l=150n as=95.4f ad=75.6f \
        ps=1.25u pd=820n m=1
    mp1 (n2 B n1 inh_VDD) pfet_01v8_hvt w=(360n) l=150n as=95.4f ad=95.4f \
        ps=1.25u pd=1.25u m=(1)*(1)
    mp2 (n3 C n2 inh_VDD) pfet_01v8_hvt w=(360n) l=150n as=95.4f ad=95.4f \
        ps=1.25u pd=1.25u m=(1)*(1)
ends OR4X2_LP
// End of subcircuit definition.

// Library name: sky130_scl_9T_LP
// Cell name: AOI221X2_LP
// View name: schematic
subckt AOI221X2_LP A0 A1 B0 B1 C0 inh_VDD inh_VSS Y
    mn2 (Y B0 net116 inh_VSS) nfet_01v8 w=(360n) l=150n as=95.4f ad=58.8f \
        ps=1.25u pd=700n m=(1)*(2)
    mn3 (net116 B1 inh_VSS inh_VSS) nfet_01v8 w=(360n) l=150n as=95.4f \
        ad=58.8f ps=1.25u pd=700n m=(1)*(2)
    mn4 (Y C0 inh_VSS inh_VSS) nfet_01v8 w=(360n) l=150n as=95.4f ad=58.8f \
        ps=1.25u pd=700n m=(1)*(2)
    mn1 (Y A1 net124 inh_VSS) nfet_01v8 w=(360n) l=150n as=95.4f ad=58.8f \
        ps=1.25u pd=700n m=(1)*(2)
    mn0 (net124 A0 inh_VSS inh_VSS) nfet_01v8 w=(360n) l=150n as=95.4f \
        ad=58.8f ps=1.25u pd=700n m=(1)*(2)
    mp3 (net104 B1 net103 inh_VDD) pfet_01v8_hvt w=(620n) l=150n as=164.3f \
        ad=86.8f ps=1.77u pd=900n m=(1)*(2)
    mp2 (net104 B0 net103 inh_VDD) pfet_01v8_hvt w=(620n) l=150n as=164.3f \
        ad=86.8f ps=1.77u pd=900n m=(1)*(2)
    mp0 (net103 A0 inh_VDD inh_VDD) pfet_01v8_hvt w=(620n) l=150n \
        as=164.3f ad=86.8f ps=1.77u pd=900n m=(1)*(2)
    mp1 (net103 A1 inh_VDD inh_VDD) pfet_01v8_hvt w=(620n) l=150n \
        as=164.3f ad=86.8f ps=1.77u pd=900n m=(1)*(2)
    mp4 (Y C0 net104 inh_VDD) pfet_01v8_hvt w=625n l=150n as=125.55f \
        ad=86.8f ps=1.335u pd=900n m=1
ends AOI221X2_LP
// End of subcircuit definition.

// Library name: sky130_scl_9T_LP
// Cell name: NOR4X2_LP
// View name: schematic
subckt NOR4X2_LP A B C D inh_VDD inh_VSS Y
    mn2 (Y C inh_VSS inh_VSS) nfet_01v8 w=(840n) l=150n as=222.6f \
        ad=222.6f ps=2.21u pd=2.21u m=(1)*(1)
    mn3 (Y D inh_VSS inh_VSS) nfet_01v8 w=(840n) l=150n as=222.6f \
        ad=222.6f ps=2.21u pd=2.21u m=(1)*(1)
    mn0 (Y A inh_VSS inh_VSS) nfet_01v8 w=(840n) l=150n as=222.6f \
        ad=222.6f ps=2.21u pd=2.21u m=(1)*(1)
    mn1 (Y B inh_VSS inh_VSS) nfet_01v8 w=(840n) l=150n as=222.6f \
        ad=222.6f ps=2.21u pd=2.21u m=(1)*(1)
    mp1 (n1 B n0 inh_VDD) pfet_01v8_hvt w=(1.24u) l=150n as=328.6f \
        ad=328.6f ps=3.01u pd=3.01u m=(1)*(1)
    mp3 (Y D n2 inh_VDD) pfet_01v8_hvt w=1.13u l=150n as=328.6f ad=328.6f \
        ps=3.01u pd=3.01u m=1
    mp2 (n2 C n1 inh_VDD) pfet_01v8_hvt w=(1.24u) l=150n as=328.6f \
        ad=328.6f ps=3.01u pd=3.01u m=(1)*(1)
    mp0 (n0 A inh_VDD inh_VDD) pfet_01v8_hvt w=(1.24u) l=150n as=328.6f \
        ad=328.6f ps=3.01u pd=3.01u m=(1)*(1)
ends NOR4X2_LP
// End of subcircuit definition.

// Library name: sky130_scl_9T_LP
// Cell name: AOI21X2_LP
// View name: schematic
subckt AOI21X2_LP A0 A1 B0 inh_VDD inh_VSS Y
    mn2 (Y B0 inh_VSS inh_VSS) nfet_01v8 w=(840n) l=150n as=222.6f \
        ad=222.6f ps=2.21u pd=2.21u m=(1)*(1)
    mn0 (net74 A0 inh_VSS inh_VSS) nfet_01v8 w=(840n) l=150n as=222.6f \
        ad=222.6f ps=2.21u pd=2.21u m=(1)*(1)
    mn1 (Y A1 net74 inh_VSS) nfet_01v8 w=(840n) l=150n as=222.6f ad=222.6f \
        ps=2.21u pd=2.21u m=(1)*(1)
    mp2 (Y B0 net70 inh_VDD) pfet_01v8_hvt w=1.13u l=150n as=328.6f \
        ad=328.6f ps=3.01u pd=3.01u m=1
    mp1 (net70 A1 inh_VDD inh_VDD) pfet_01v8_hvt w=(1.24u) l=150n \
        as=328.6f ad=328.6f ps=3.01u pd=3.01u m=(1)*(1)
    mp0 (net70 A0 inh_VDD inh_VDD) pfet_01v8_hvt w=(1.24u) l=150n \
        as=328.6f ad=328.6f ps=3.01u pd=3.01u m=(1)*(1)
ends AOI21X2_LP
// End of subcircuit definition.

// Library name: sky130_scl_9T_LP
// Cell name: MX2X1_LP
// View name: schematic
subckt MX2X1_LP A B S0 inh_VDD inh_VSS Y
    mn3 (n5 B inh_VSS inh_VSS) nfet_01v8 w=(360n) l=150n as=95.4f ad=95.4f \
        ps=1.25u pd=1.25u m=(1)*(1)
    mn4 (n0 S0 n5 inh_VSS) nfet_01v8 w=(360n) l=150n as=95.4f ad=95.4f \
        ps=1.25u pd=1.25u m=(1)*(1)
    mn0 (S0b S0 inh_VSS inh_VSS) nfet_01v8 w=(360n) l=150n as=95.4f \
        ad=95.4f ps=1.25u pd=1.25u m=(1)*(1)
    mn1 (n3 A inh_VSS inh_VSS) nfet_01v8 w=(360n) l=150n as=95.4f ad=95.4f \
        ps=1.25u pd=1.25u m=(1)*(1)
    mn5 (Y n0 inh_VSS inh_VSS) nfet_01v8 w=(360n) l=150n as=95.4f ad=95.4f \
        ps=1.25u pd=1.25u m=(1)*(1)
    mn2 (n0 S0b n3 inh_VSS) nfet_01v8 w=(360n) l=150n as=95.4f ad=95.4f \
        ps=1.25u pd=1.25u m=(1)*(1)
    mp4 (n0 S0b n6 inh_VDD) pfet_01v8_hvt w=(360n) l=150n as=95.4f \
        ad=95.4f ps=1.25u pd=1.25u m=(1)*(1)
    mp3 (n6 B inh_VDD inh_VDD) pfet_01v8_hvt w=(360n) l=150n as=95.4f \
        ad=95.4f ps=1.25u pd=1.25u m=(1)*(1)
    mp5 (Y n0 inh_VDD inh_VDD) pfet_01v8_hvt w=1.13u l=150n as=164.3f \
        ad=164.3f ps=1.77u pd=1.77u m=1
    mp0 (S0b S0 inh_VDD inh_VDD) pfet_01v8_hvt w=(360n) l=150n as=95.4f \
        ad=95.4f ps=1.25u pd=1.25u m=(1)*(1)
    mp2 (n0 S0 n4 inh_VDD) pfet_01v8_hvt w=1.13u l=150n as=75.6f ad=95.4f \
        ps=820n pd=1.25u m=1
    mp1 (n4 A inh_VDD inh_VDD) pfet_01v8_hvt w=(360n) l=150n as=95.4f \
        ad=95.4f ps=1.25u pd=1.25u m=(1)*(1)
ends MX2X1_LP
// End of subcircuit definition.

// Library name: sky130_scl_9T_LP
// Cell name: AOI21X1_LP
// View name: schematic
subckt AOI21X1_LP A0 A1 B0 inh_VDD inh_VSS Y
    mn2 (Y B0 inh_VSS inh_VSS) nfet_01v8 w=(360n) l=150n as=95.4f ad=95.4f \
        ps=1.25u pd=1.25u m=(1)*(1)
    mn0 (net78 A0 inh_VSS inh_VSS) nfet_01v8 w=(360n) l=150n as=95.4f \
        ad=95.4f ps=1.25u pd=1.25u m=(1)*(1)
    mn1 (Y A1 net78 inh_VSS) nfet_01v8 w=(360n) l=150n as=95.4f ad=95.4f \
        ps=1.25u pd=1.25u m=(1)*(1)
    mp2 (Y B0 net62 inh_VDD) pfet_01v8_hvt w=(620n) l=150n as=164.3f \
        ad=164.3f ps=1.77u pd=1.77u m=(1)*(1)
    mp1 (net62 A1 inh_VDD inh_VDD) pfet_01v8_hvt w=(620n) l=150n as=164.3f \
        ad=164.3f ps=1.77u pd=1.77u m=(1)*(1)
    mp0 (net62 A0 inh_VDD inh_VDD) pfet_01v8_hvt w=1.13u l=150n as=164.3f \
        ad=164.3f ps=1.77u pd=1.77u m=1
ends AOI21X1_LP
// End of subcircuit definition.

// Library name: sky130_scl_9T_LP
// Cell name: DFFRX4_LP
// View name: schematic
subckt DFFRX4_LP CK D Q QN RN inh_VDD inh_VSS
    mn36 (n25 mout n27 inh_VSS) nfet_01v8 w=(360n) l=150n as=95.4f \
        ad=95.4f ps=1.25u pd=1.25u m=(1)*(1)
    mn35 (n27 RN inh_VSS inh_VSS) nfet_01v8 w=(360n) l=150n as=95.4f \
        ad=95.4f ps=1.25u pd=1.25u m=(1)*(1)
    mn37 (n20 CKbb n25 inh_VSS) nfet_01v8 w=(360n) l=150n as=95.4f \
        ad=95.4f ps=1.25u pd=1.25u m=(1)*(1)
    mn26 (n20 CKb n21 inh_VSS) nfet_01v8 w=(360n) l=150n as=95.4f ad=95.4f \
        ps=1.25u pd=1.25u m=(1)*(1)
    mn25 (n21 D inh_VSS inh_VSS) nfet_01v8 w=(360n) l=150n as=95.4f \
        ad=95.4f ps=1.25u pd=1.25u m=(1)*(1)
    mn57 (QN qint inh_VSS inh_VSS) nfet_01v8 w=(360n) l=150n as=85.05f \
        ad=58.8f ps=1.035u pd=700n m=(1)*(4)
    mn55 (Q qbint inh_VSS inh_VSS) nfet_01v8 w=(360n) l=150n as=85.05f \
        ad=58.8f ps=1.035u pd=700n m=(1)*(4)
    mn45 (n35 RN inh_VSS inh_VSS) nfet_01v8 w=(360n) l=150n as=95.4f \
        ad=58.8f ps=1.25u pd=700n m=(1)*(2)
    mn46 (qbint n30 n35 inh_VSS) nfet_01v8 w=(360n) l=150n as=95.4f \
        ad=58.8f ps=1.25u pd=700n m=(1)*(2)
    mn51 (n30 CKb n40 inh_VSS) nfet_01v8 w=(360n) l=150n as=95.4f ad=95.4f \
        ps=1.25u pd=1.25u m=(1)*(1)
    mn50 (n40 qbint inh_VSS inh_VSS) nfet_01v8 w=(360n) l=150n as=95.4f \
        ad=95.4f ps=1.25u pd=1.25u m=(1)*(1)
    mn21 (CKbb CKb inh_VSS inh_VSS) nfet_01v8 w=(360n) l=150n as=95.4f \
        ad=95.4f ps=1.25u pd=1.25u m=(1)*(1)
    mn40 (n30 CKbb mout inh_VSS) nfet_01v8 w=(360n) l=150n as=95.4f \
        ad=95.4f ps=1.25u pd=1.25u m=(1)*(1)
    mn30 (mout n20 inh_VSS inh_VSS) nfet_01v8 w=(360n) l=150n as=95.4f \
        ad=95.4f ps=1.25u pd=1.25u m=(1)*(1)
    mn56 (qint qbint inh_VSS inh_VSS) nfet_01v8 w=(360n) l=150n as=95.4f \
        ad=95.4f ps=1.25u pd=1.25u m=(1)*(1)
    mn20 (CKb CK inh_VSS inh_VSS) nfet_01v8 w=(360n) l=150n as=95.4f \
        ad=95.4f ps=1.25u pd=1.25u m=(1)*(1)
    mp26 (n20 CKbb n22 inh_VDD) pfet_01v8_hvt w=(360n) l=150n as=95.4f \
        ad=95.4f ps=1.25u pd=1.25u m=(1)*(1)
    mp25 (n22 D inh_VDD inh_VDD) pfet_01v8_hvt w=(360n) l=150n as=95.4f \
        ad=95.4f ps=1.25u pd=1.25u m=(1)*(1)
    mp51 (n30 CKbb n41 inh_VDD) pfet_01v8_hvt w=(360n) l=150n as=95.4f \
        ad=95.4f ps=1.25u pd=1.25u m=(1)*(1)
    mp50 (n41 qbint inh_VDD inh_VDD) pfet_01v8_hvt w=(360n) l=150n \
        as=95.4f ad=95.4f ps=1.25u pd=1.25u m=(1)*(1)
    mp57 (QN qint inh_VDD inh_VDD) pfet_01v8_hvt w=(620n) l=150n \
        as=125.55f ad=86.8f ps=1.335u pd=900n m=(1)*(4)
    mp55 (Q qbint inh_VDD inh_VDD) pfet_01v8_hvt w=1.13u l=150n as=125.55f \
        ad=86.8f ps=1.335u pd=900n m=1
    mp20 (CKb CK inh_VDD inh_VDD) pfet_01v8_hvt w=(360n) l=150n as=95.4f \
        ad=95.4f ps=1.25u pd=1.25u m=(1)*(1)
    mp21 (CKbb CKb inh_VDD inh_VDD) pfet_01v8_hvt w=(360n) l=150n as=95.4f \
        ad=95.4f ps=1.25u pd=1.25u m=(1)*(1)
    mp36 (n26 mout inh_VDD inh_VDD) pfet_01v8_hvt w=(360n) l=150n as=95.4f \
        ad=95.4f ps=1.25u pd=1.25u m=(1)*(1)
    mp30 (mout n20 inh_VDD inh_VDD) pfet_01v8_hvt w=(360n) l=150n as=95.4f \
        ad=95.4f ps=1.25u pd=1.25u m=(1)*(1)
    mp35 (n26 RN inh_VDD inh_VDD) pfet_01v8_hvt w=(360n) l=150n as=95.4f \
        ad=95.4f ps=1.25u pd=1.25u m=(1)*(1)
    mp37 (n20 CKb n26 inh_VDD) pfet_01v8_hvt w=1.13u l=150n as=75.6f \
        ad=95.4f ps=820n pd=1.25u m=1
    mp46 (qbint n30 inh_VDD inh_VDD) pfet_01v8_hvt w=(360n) l=150n \
        as=95.4f ad=75.6f ps=1.25u pd=820n m=(1)*(2)
    mp40 (n30 CKb mout inh_VDD) pfet_01v8_hvt w=(360n) l=150n as=95.4f \
        ad=95.4f ps=1.25u pd=1.25u m=(1)*(1)
    mp45 (qbint RN inh_VDD inh_VDD) pfet_01v8_hvt w=1.13u l=150n \
        as=109.35f ad=75.6f ps=1.215u pd=820n m=1
    mp56 (qint qbint inh_VDD inh_VDD) pfet_01v8_hvt w=1.13u l=150n \
        as=86.8f ad=164.3f ps=900n pd=1.77u m=1
ends DFFRX4_LP
// End of subcircuit definition.

// Library name: sky130_scl_9T_LP
// Cell name: DFFX1_LP
// View name: schematic
subckt DFFX1_LP CK D Q QN inh_VDD inh_VSS
    mn26 (n20 CKb n21 inh_VSS) nfet_01v8 w=(360n) l=150n as=95.4f ad=95.4f \
        ps=1.25u pd=1.25u m=(1)*(1)
    mn25 (n21 D inh_VSS inh_VSS) nfet_01v8 w=(360n) l=150n as=95.4f \
        ad=95.4f ps=1.25u pd=1.25u m=(1)*(1)
    mn57 (QN qint inh_VSS inh_VSS) nfet_01v8 w=(360n) l=150n as=95.4f \
        ad=95.4f ps=1.25u pd=1.25u m=(1)*(1)
    mn55 (Q qbint inh_VSS inh_VSS) nfet_01v8 w=(360n) l=150n as=95.4f \
        ad=95.4f ps=1.25u pd=1.25u m=(1)*(1)
    mn50 (n35 qbint inh_VSS inh_VSS) nfet_01v8 w=(360n) l=150n as=95.4f \
        ad=95.4f ps=1.25u pd=1.25u m=(1)*(1)
    mn51 (n30 CKb n35 inh_VSS) nfet_01v8 w=(360n) l=150n as=95.4f ad=95.4f \
        ps=1.25u pd=1.25u m=(1)*(1)
    mn35 (n25 mout inh_VSS inh_VSS) nfet_01v8 w=(360n) l=150n as=95.4f \
        ad=95.4f ps=1.25u pd=1.25u m=(1)*(1)
    mn36 (n20 CKbb n25 inh_VSS) nfet_01v8 w=(360n) l=150n as=95.4f \
        ad=95.4f ps=1.25u pd=1.25u m=(1)*(1)
    mn20 (CKb CK inh_VSS inh_VSS) nfet_01v8 w=(360n) l=150n as=95.4f \
        ad=95.4f ps=1.25u pd=1.25u m=(1)*(1)
    mn45 (qbint n30 inh_VSS inh_VSS) nfet_01v8 w=(360n) l=150n as=95.4f \
        ad=95.4f ps=1.25u pd=1.25u m=(1)*(1)
    mn56 (qint qbint inh_VSS inh_VSS) nfet_01v8 w=(360n) l=150n as=95.4f \
        ad=95.4f ps=1.25u pd=1.25u m=(1)*(1)
    mn21 (CKbb CKb inh_VSS inh_VSS) nfet_01v8 w=(360n) l=150n as=95.4f \
        ad=95.4f ps=1.25u pd=1.25u m=(1)*(1)
    mn30 (mout n20 inh_VSS inh_VSS) nfet_01v8 w=(360n) l=150n as=95.4f \
        ad=95.4f ps=1.25u pd=1.25u m=(1)*(1)
    mn40 (n30 CKbb mout inh_VSS) nfet_01v8 w=(360n) l=150n as=95.4f \
        ad=95.4f ps=1.25u pd=1.25u m=(1)*(1)
    mp26 (n20 CKbb n22 inh_VDD) pfet_01v8_hvt w=(360n) l=150n as=95.4f \
        ad=95.4f ps=1.25u pd=1.25u m=(1)*(1)
    mp25 (n22 D inh_VDD inh_VDD) pfet_01v8_hvt w=(360n) l=150n as=95.4f \
        ad=95.4f ps=1.25u pd=1.25u m=(1)*(1)
    mp51 (n30 CKbb n36 inh_VDD) pfet_01v8_hvt w=(360n) l=150n as=95.4f \
        ad=95.4f ps=1.25u pd=1.25u m=(1)*(1)
    mp50 (n36 qbint inh_VDD inh_VDD) pfet_01v8_hvt w=(360n) l=150n \
        as=95.4f ad=95.4f ps=1.25u pd=1.25u m=(1)*(1)
    mp57 (QN qint inh_VDD inh_VDD) pfet_01v8_hvt w=(620n) l=150n as=164.3f \
        ad=164.3f ps=1.77u pd=1.77u m=(1)*(1)
    mp55 (Q qbint inh_VDD inh_VDD) pfet_01v8_hvt w=625n l=150n as=164.3f \
        ad=164.3f ps=1.77u pd=1.77u m=1
    mp35 (n26 mout inh_VDD inh_VDD) pfet_01v8_hvt w=(360n) l=150n as=95.4f \
        ad=95.4f ps=1.25u pd=1.25u m=(1)*(1)
    mp36 (n20 CKb n26 inh_VDD) pfet_01v8_hvt w=625n l=150n as=75.6f \
        ad=95.4f ps=820n pd=1.25u m=1
    mp20 (CKb CK inh_VDD inh_VDD) pfet_01v8_hvt w=(360n) l=150n as=95.4f \
        ad=95.4f ps=1.25u pd=1.25u m=(1)*(1)
    mp45 (qbint n30 inh_VDD inh_VDD) pfet_01v8_hvt w=(360n) l=150n \
        as=95.4f ad=95.4f ps=1.25u pd=1.25u m=(1)*(1)
    mp56 (qint qbint inh_VDD inh_VDD) pfet_01v8_hvt w=(360n) l=150n \
        as=95.4f ad=95.4f ps=1.25u pd=1.25u m=(1)*(1)
    mp21 (CKbb CKb inh_VDD inh_VDD) pfet_01v8_hvt w=(360n) l=150n as=95.4f \
        ad=95.4f ps=1.25u pd=1.25u m=(1)*(1)
    mp40 (n30 CKb mout inh_VDD) pfet_01v8_hvt w=(360n) l=150n as=95.4f \
        ad=95.4f ps=1.25u pd=1.25u m=(1)*(1)
    mp30 (mout n20 inh_VDD inh_VDD) pfet_01v8_hvt w=(360n) l=150n as=95.4f \
        ad=95.4f ps=1.25u pd=1.25u m=(1)*(1)
ends DFFX1_LP
// End of subcircuit definition.

// Library name: sky130_scl_9T_LP
// Cell name: AOI221X1_LP
// View name: schematic
subckt AOI221X1_LP A0 A1 B0 B1 C0 inh_VDD inh_VSS Y
    mn2 (net120 B0 inh_VSS inh_VSS) nfet_01v8 w=(360n) l=150n as=95.4f \
        ad=95.4f ps=1.25u pd=1.25u m=(1)*(1)
    mn3 (Y B1 net120 inh_VSS) nfet_01v8 w=(360n) l=150n as=95.4f ad=95.4f \
        ps=1.25u pd=1.25u m=(1)*(1)
    mn4 (Y C0 inh_VSS inh_VSS) nfet_01v8 w=(360n) l=150n as=95.4f ad=95.4f \
        ps=1.25u pd=1.25u m=(1)*(1)
    mn1 (Y A1 net128 inh_VSS) nfet_01v8 w=(360n) l=150n as=95.4f ad=95.4f \
        ps=1.25u pd=1.25u m=(1)*(1)
    mn0 (net128 A0 inh_VSS inh_VSS) nfet_01v8 w=(360n) l=150n as=95.4f \
        ad=95.4f ps=1.25u pd=1.25u m=(1)*(1)
    mp3 (net108 B1 net111 inh_VDD) pfet_01v8_hvt w=(620n) l=150n as=164.3f \
        ad=164.3f ps=1.77u pd=1.77u m=(1)*(1)
    mp2 (net108 B0 net111 inh_VDD) pfet_01v8_hvt w=(620n) l=150n as=164.3f \
        ad=164.3f ps=1.77u pd=1.77u m=(1)*(1)
    mp0 (net111 A0 inh_VDD inh_VDD) pfet_01v8_hvt w=(620n) l=150n \
        as=164.3f ad=164.3f ps=1.77u pd=1.77u m=(1)*(1)
    mp1 (net111 A1 inh_VDD inh_VDD) pfet_01v8_hvt w=(620n) l=150n \
        as=164.3f ad=164.3f ps=1.77u pd=1.77u m=(1)*(1)
    mp4 (Y C0 net108 inh_VDD) pfet_01v8_hvt w=1.13u l=150n as=164.3f \
        ad=164.3f ps=1.77u pd=1.77u m=1
ends AOI221X1_LP
// End of subcircuit definition.

// Library name: sky130_scl_9T_LP
// Cell name: NOR4X1_LP
// View name: schematic
subckt NOR4X1_LP A B C D inh_VDD inh_VSS Y
    mn2 (Y C inh_VSS inh_VSS) nfet_01v8 w=(360n) l=150n as=95.4f ad=95.4f \
        ps=1.25u pd=1.25u m=(1)*(1)
    mn3 (Y D inh_VSS inh_VSS) nfet_01v8 w=(360n) l=150n as=95.4f ad=95.4f \
        ps=1.25u pd=1.25u m=(1)*(1)
    mn0 (Y A inh_VSS inh_VSS) nfet_01v8 w=(360n) l=150n as=95.4f ad=95.4f \
        ps=1.25u pd=1.25u m=(1)*(1)
    mn1 (Y B inh_VSS inh_VSS) nfet_01v8 w=(360n) l=150n as=95.4f ad=95.4f \
        ps=1.25u pd=1.25u m=(1)*(1)
    mp1 (n1 B n0 inh_VDD) pfet_01v8_hvt w=(620n) l=150n as=164.3f \
        ad=164.3f ps=1.77u pd=1.77u m=(1)*(1)
    mp3 (Y D n2 inh_VDD) pfet_01v8_hvt w=1.13u l=150n as=164.3f ad=164.3f \
        ps=1.77u pd=1.77u m=1
    mp2 (n2 C n1 inh_VDD) pfet_01v8_hvt w=(620n) l=150n as=164.3f \
        ad=164.3f ps=1.77u pd=1.77u m=(1)*(1)
    mp0 (n0 A inh_VDD inh_VDD) pfet_01v8_hvt w=(620n) l=150n as=164.3f \
        ad=164.3f ps=1.77u pd=1.77u m=(1)*(1)
ends NOR4X1_LP
// End of subcircuit definition.

// Library name: sky130_scl_9T_LP
// Cell name: OAI221X1_LP
// View name: schematic
subckt OAI221X1_LP A0 A1 B0 B1 C0 inh_VDD inh_VSS Y
    mn4 (Y C0 net132 inh_VSS) nfet_01v8 w=(360n) l=150n as=95.4f ad=95.4f \
        ps=1.25u pd=1.25u m=(1)*(1)
    mn0 (net128 A0 inh_VSS inh_VSS) nfet_01v8 w=(360n) l=150n as=95.4f \
        ad=95.4f ps=1.25u pd=1.25u m=(1)*(1)
    mn1 (net128 A1 inh_VSS inh_VSS) nfet_01v8 w=(360n) l=150n as=95.4f \
        ad=95.4f ps=1.25u pd=1.25u m=(1)*(1)
    mn2 (net132 B0 net128 inh_VSS) nfet_01v8 w=(360n) l=150n as=95.4f \
        ad=95.4f ps=1.25u pd=1.25u m=(1)*(1)
    mn3 (net132 B1 net128 inh_VSS) nfet_01v8 w=(360n) l=150n as=95.4f \
        ad=95.4f ps=1.25u pd=1.25u m=(1)*(1)
    mp3 (Y B1 net123 inh_VDD) pfet_01v8_hvt w=(620n) l=150n as=164.3f \
        ad=164.3f ps=1.77u pd=1.77u m=(1)*(1)
    mp0 (net115 A0 inh_VDD inh_VDD) pfet_01v8_hvt w=(620n) l=150n \
        as=164.3f ad=164.3f ps=1.77u pd=1.77u m=(1)*(1)
    mp1 (Y A1 net115 inh_VDD) pfet_01v8_hvt w=1.13u l=150n as=164.3f \
        ad=164.3f ps=1.77u pd=1.77u m=2
    mp2 (net123 B0 inh_VDD inh_VDD) pfet_01v8_hvt w=(620n) l=150n \
        as=164.3f ad=164.3f ps=1.77u pd=1.77u m=(1)*(1)
    mp4 (Y C0 inh_VDD inh_VDD) pfet_01v8_hvt w=(620n) l=150n as=164.3f \
        ad=164.3f ps=1.77u pd=1.77u m=(1)*(1)
ends OAI221X1_LP
// End of subcircuit definition.

// Library name: sky130_scl_9T_LP
// Cell name: DLY4X4_LP
// View name: schematic
subckt DLY4X4_LP A inh_VDD inh_VSS Y
    mn14 (net345 inh_VDD net341 inh_VSS) nfet_01v8 w=(360n) l=150n \
        as=95.4f ad=95.4f ps=1.25u pd=1.25u m=(1)*(1)
    mn13 (net341 net353 inh_VSS inh_VSS) nfet_01v8 w=(360n) l=150n \
        as=95.4f ad=95.4f ps=1.25u pd=1.25u m=(1)*(1)
    mn12 (net353 inh_VDD net349 inh_VSS) nfet_01v8 w=(360n) l=150n \
        as=95.4f ad=95.4f ps=1.25u pd=1.25u m=(1)*(1)
    mn11 (net349 net361 inh_VSS inh_VSS) nfet_01v8 w=(360n) l=150n \
        as=95.4f ad=95.4f ps=1.25u pd=1.25u m=(1)*(1)
    mn10 (net361 inh_VDD net357 inh_VSS) nfet_01v8 w=(360n) l=150n \
        as=95.4f ad=95.4f ps=1.25u pd=1.25u m=(1)*(1)
    mn9 (net357 net369 inh_VSS inh_VSS) nfet_01v8 w=(360n) l=150n as=95.4f \
        ad=95.4f ps=1.25u pd=1.25u m=(1)*(1)
    mn15 (net333 net345 inh_VSS inh_VSS) nfet_01v8 w=(360n) l=150n \
        as=95.4f ad=95.4f ps=1.25u pd=1.25u m=(1)*(1)
    mn6 (net377 inh_VDD net373 inh_VSS) nfet_01v8 w=(360n) l=150n as=95.4f \
        ad=95.4f ps=1.25u pd=1.25u m=(1)*(1)
    mn0 (net397 A inh_VSS inh_VSS) nfet_01v8 w=(360n) l=150n as=95.4f \
        ad=95.4f ps=1.25u pd=1.25u m=(1)*(1)
    mn4 (net385 inh_VDD net381 inh_VSS) nfet_01v8 w=(360n) l=150n as=95.4f \
        ad=95.4f ps=1.25u pd=1.25u m=(1)*(1)
    mn1 (net389 net397 inh_VSS inh_VSS) nfet_01v8 w=(360n) l=150n as=95.4f \
        ad=95.4f ps=1.25u pd=1.25u m=(1)*(1)
    mn7 (net365 net377 inh_VSS inh_VSS) nfet_01v8 w=(360n) l=150n as=95.4f \
        ad=95.4f ps=1.25u pd=1.25u m=(1)*(1)
    mn16 (Y net333 inh_VSS inh_VSS) nfet_01v8 w=(360n) l=150n as=85.05f \
        ad=58.8f ps=1.035u pd=700n m=(1)*(4)
    mn3 (net381 net393 inh_VSS inh_VSS) nfet_01v8 w=(360n) l=150n as=95.4f \
        ad=95.4f ps=1.25u pd=1.25u m=(1)*(1)
    mn2 (net393 inh_VDD net389 inh_VSS) nfet_01v8 w=(360n) l=150n as=95.4f \
        ad=95.4f ps=1.25u pd=1.25u m=(1)*(1)
    mn8 (net369 inh_VDD net365 inh_VSS) nfet_01v8 w=(360n) l=150n as=95.4f \
        ad=95.4f ps=1.25u pd=1.25u m=(1)*(1)
    mn5 (net373 net385 inh_VSS inh_VSS) nfet_01v8 w=(360n) l=150n as=95.4f \
        ad=95.4f ps=1.25u pd=1.25u m=(1)*(1)
    mp8 (net369 inh_VSS net300 inh_VDD) pfet_01v8_hvt w=(360n) l=150n \
        as=95.4f ad=95.4f ps=1.25u pd=1.25u m=(1)*(1)
    mp7 (net300 net377 inh_VDD inh_VDD) pfet_01v8_hvt w=(360n) l=150n \
        as=95.4f ad=95.4f ps=1.25u pd=1.25u m=(1)*(1)
    mp9 (net292 net369 inh_VDD inh_VDD) pfet_01v8_hvt w=(360n) l=150n \
        as=95.4f ad=95.4f ps=1.25u pd=1.25u m=(1)*(1)
    mp10 (net361 inh_VSS net292 inh_VDD) pfet_01v8_hvt w=(360n) l=150n \
        as=95.4f ad=95.4f ps=1.25u pd=1.25u m=(1)*(1)
    mp6 (net377 inh_VSS net308 inh_VDD) pfet_01v8_hvt w=(360n) l=150n \
        as=95.4f ad=95.4f ps=1.25u pd=1.25u m=(1)*(1)
    mp5 (net308 net385 inh_VDD inh_VDD) pfet_01v8_hvt w=(360n) l=150n \
        as=95.4f ad=95.4f ps=1.25u pd=1.25u m=(1)*(1)
    mp4 (net385 inh_VSS net316 inh_VDD) pfet_01v8_hvt w=(360n) l=150n \
        as=95.4f ad=95.4f ps=1.25u pd=1.25u m=(1)*(1)
    mp3 (net316 net393 inh_VDD inh_VDD) pfet_01v8_hvt w=(360n) l=150n \
        as=95.4f ad=95.4f ps=1.25u pd=1.25u m=(1)*(1)
    mp2 (net393 inh_VSS net324 inh_VDD) pfet_01v8_hvt w=(360n) l=150n \
        as=95.4f ad=95.4f ps=1.25u pd=1.25u m=(1)*(1)
    mp1 (net324 net397 inh_VDD inh_VDD) pfet_01v8_hvt w=(360n) l=150n \
        as=95.4f ad=95.4f ps=1.25u pd=1.25u m=(1)*(1)
    mp11 (net284 net361 inh_VDD inh_VDD) pfet_01v8_hvt w=(360n) l=150n \
        as=95.4f ad=95.4f ps=1.25u pd=1.25u m=(1)*(1)
    mp12 (net353 inh_VSS net284 inh_VDD) pfet_01v8_hvt w=(360n) l=150n \
        as=95.4f ad=95.4f ps=1.25u pd=1.25u m=(1)*(1)
    mp13 (net276 net353 inh_VDD inh_VDD) pfet_01v8_hvt w=(360n) l=150n \
        as=95.4f ad=95.4f ps=1.25u pd=1.25u m=(1)*(1)
    mp14 (net345 inh_VSS net276 inh_VDD) pfet_01v8_hvt w=(360n) l=150n \
        as=95.4f ad=75.6f ps=1.25u pd=820n m=(1)*(1)
    mp15 (net333 net345 inh_VDD inh_VDD) pfet_01v8_hvt w=(620n) l=150n \
        as=164.3f ad=164.3f ps=1.77u pd=1.77u m=(1)*(1)
    mp0 (net397 A inh_VDD inh_VDD) pfet_01v8_hvt w=(360n) l=150n as=95.4f \
        ad=95.4f ps=1.25u pd=1.25u m=(1)*(1)
    mp16 (Y net333 inh_VDD inh_VDD) pfet_01v8_hvt w=(620n) l=150n \
        as=106.175f ad=86.8f ps=1.1175u pd=900n m=(1)*(4)
ends DLY4X4_LP
// End of subcircuit definition.

// Library name: sky130_scl_9T_LP
// Cell name: OR4X1_LP
// View name: schematic
subckt OR4X1_LP A B C D inh_VDD inh_VSS Y
    mn4 (Y n0 inh_VSS inh_VSS) nfet_01v8 w=(360n) l=150n as=95.4f ad=95.4f \
        ps=1.25u pd=1.25u m=(1)*(1)
    mn3 (n0 D inh_VSS inh_VSS) nfet_01v8 w=(360n) l=150n as=95.4f ad=95.4f \
        ps=1.25u pd=1.25u m=(1)*(1)
    mn0 (n0 A inh_VSS inh_VSS) nfet_01v8 w=(360n) l=150n as=95.4f ad=95.4f \
        ps=1.25u pd=1.25u m=(1)*(1)
    mn2 (n0 C inh_VSS inh_VSS) nfet_01v8 w=(360n) l=150n as=95.4f ad=95.4f \
        ps=1.25u pd=1.25u m=(1)*(1)
    mn1 (n0 B inh_VSS inh_VSS) nfet_01v8 w=(360n) l=150n as=95.4f ad=95.4f \
        ps=1.25u pd=1.25u m=(1)*(1)
    mp4 (Y n0 inh_VDD inh_VDD) pfet_01v8_hvt w=1.13u l=150n as=86.8f \
        ad=164.3f ps=900n pd=1.77u m=2
    mp0 (n1 A inh_VDD inh_VDD) pfet_01v8_hvt w=(360n) l=150n as=95.4f \
        ad=95.4f ps=1.25u pd=1.25u m=(1)*(1)
    mp3 (n0 D n3 inh_VDD) pfet_01v8_hvt w=1.13u l=150n as=75.6f ad=95.4f \
        ps=820n pd=1.25u m=2
    mp1 (n2 B n1 inh_VDD) pfet_01v8_hvt w=(360n) l=150n as=95.4f ad=95.4f \
        ps=1.25u pd=1.25u m=(1)*(1)
    mp2 (n3 C n2 inh_VDD) pfet_01v8_hvt w=(360n) l=150n as=95.4f ad=95.4f \
        ps=1.25u pd=1.25u m=(1)*(1)
ends OR4X1_LP
// End of subcircuit definition.

// Library name: sky130_scl_9T_LP
// Cell name: INVX1_LP
// View name: schematic
subckt INVX1_LP A inh_VDD inh_VSS Y
    mn0 (Y A inh_VSS inh_VSS) nfet_01v8 w=760n l=150n as=95.4f ad=95.4f \
        ps=1.25u pd=1.25u m=1
    mp0 (Y A inh_VDD inh_VDD) pfet_01v8_hvt w=(620n) l=150n as=164.3f \
        ad=164.3f ps=1.77u pd=1.77u m=(1)*(1)
ends INVX1_LP
// End of subcircuit definition.

// Library name: sky130_scl_9T_LP
// Cell name: MX2X4_LP
// View name: schematic
subckt MX2X4_LP A B S0 inh_VDD inh_VSS Y
    mn3 (n5 B inh_VSS inh_VSS) nfet_01v8 w=(360n) l=150n as=95.4f ad=95.4f \
        ps=1.25u pd=1.25u m=(1)*(1)
    mn4 (n0 S0 n5 inh_VSS) nfet_01v8 w=(360n) l=150n as=95.4f ad=95.4f \
        ps=1.25u pd=1.25u m=(1)*(1)
    mn0 (S0b S0 inh_VSS inh_VSS) nfet_01v8 w=(360n) l=150n as=95.4f \
        ad=95.4f ps=1.25u pd=1.25u m=(1)*(1)
    mn1 (n3 A inh_VSS inh_VSS) nfet_01v8 w=(360n) l=150n as=95.4f ad=95.4f \
        ps=1.25u pd=1.25u m=(1)*(1)
    mn5 (Y n0 inh_VSS inh_VSS) nfet_01v8 w=(840n) l=150n as=222.6f \
        ad=117.6f ps=2.21u pd=1.12u m=(1)*(2)
    mn2 (n0 S0b n3 inh_VSS) nfet_01v8 w=(360n) l=150n as=95.4f ad=95.4f \
        ps=1.25u pd=1.25u m=(1)*(1)
    mp4 (n0 S0b n6 inh_VDD) pfet_01v8_hvt w=(360n) l=150n as=95.4f \
        ad=95.4f ps=1.25u pd=1.25u m=(1)*(1)
    mp3 (n6 B inh_VDD inh_VDD) pfet_01v8_hvt w=(360n) l=150n as=95.4f \
        ad=95.4f ps=1.25u pd=1.25u m=(1)*(1)
    mp5 (Y n0 inh_VDD inh_VDD) pfet_01v8_hvt w=625n l=150n as=251.1f \
        ad=173.6f ps=2.265u pd=1.52u m=1
    mp0 (S0b S0 inh_VDD inh_VDD) pfet_01v8_hvt w=(360n) l=150n as=95.4f \
        ad=95.4f ps=1.25u pd=1.25u m=(1)*(1)
    mp2 (n0 S0 n4 inh_VDD) pfet_01v8_hvt w=625n l=150n as=95.4f ad=95.4f \
        ps=1.25u pd=1.25u m=1
    mp1 (n4 A inh_VDD inh_VDD) pfet_01v8_hvt w=(360n) l=150n as=95.4f \
        ad=95.4f ps=1.25u pd=1.25u m=(1)*(1)
ends MX2X4_LP
// End of subcircuit definition.

// Library name: sky130_scl_9T_LP
// Cell name: CLKXOR2X1_LP
// View name: schematic
subckt CLKXOR2X1_LP A B inh_VDD inh_VSS Y
    mn1 (n2 B inh_VSS inh_VSS) nfet_01v8 w=(360n) l=150n as=95.4f ad=95.4f \
        ps=1.25u pd=1.25u m=(1)*(1)
    mn0 (n1 A inh_VSS inh_VSS) nfet_01v8 w=(360n) l=150n as=95.4f ad=95.4f \
        ps=1.25u pd=1.25u m=(1)*(1)
    mn5 (Y n0 inh_VSS inh_VSS) nfet_01v8 w=(820n) l=150n as=166.05f \
        ad=114.8f ps=1.635u pd=1.1u m=(1)*(4)
    mn3 (n0 B net139 inh_VSS) nfet_01v8 w=(360n) l=150n as=95.4f ad=95.4f \
        ps=1.25u pd=1.25u m=(1)*(1)
    mn4 (n0 n2 n1 inh_VSS) nfet_01v8 w=(360n) l=150n as=95.4f ad=95.4f \
        ps=1.25u pd=1.25u m=(1)*(1)
    mn2 (net139 n1 inh_VSS inh_VSS) nfet_01v8 w=(360n) l=150n as=95.4f \
        ad=95.4f ps=1.25u pd=1.25u m=(1)*(1)
    mp3 (n0 n2 net130 inh_VDD) pfet_01v8_hvt w=(360n) l=150n as=95.4f \
        ad=95.4f ps=1.25u pd=1.25u m=(1)*(1)
    mp1 (n2 B inh_VDD inh_VDD) pfet_01v8_hvt w=(360n) l=150n as=95.4f \
        ad=95.4f ps=1.25u pd=1.25u m=(1)*(1)
    mp4 (n0 B n1 inh_VDD) pfet_01v8_hvt w=1.13u l=150n as=95.4f ad=95.4f \
        ps=1.25u pd=1.25u m=2
    mp0 (n1 A inh_VDD inh_VDD) pfet_01v8_hvt w=(360n) l=150n as=95.4f \
        ad=95.4f ps=1.25u pd=1.25u m=(1)*(1)
    mp5 (Y n0 inh_VDD inh_VDD) pfet_01v8_hvt w=1.13u l=150n as=95.4f \
        ad=95.4f ps=1.25u pd=1.25u m=2
    mp2 (net130 n1 inh_VDD inh_VDD) pfet_01v8_hvt w=(360n) l=150n as=95.4f \
        ad=95.4f ps=1.25u pd=1.25u m=(1)*(1)
ends CLKXOR2X1_LP
// End of subcircuit definition.

// Library name: sky130_scl_9T_LP