************************************************************************
* auCdl Netlist:
* 
* Library Name:  sky130_scl_9T_LP
* Top Cell Name: ADDFX1_LP
* View Name:     schematic
* Netlisted on:  Feb 28 11:48:27 2025
************************************************************************

*.BIPOLAR
*.RESI = 2000
*.RESVAL
*.CAPVAL
*.DIOPERI
*.DIOAREA
*.EQUATION
*.SCALE METER
*.MEGA
.PARAM

*.GLOBAL VSS!
+        VDD!

*.PIN VSS!
*+    VDD!

************************************************************************
* Library Name: sky130_scl_9T_LP
* Cell Name:    ADDFX1_LP
* View Name:    schematic
************************************************************************

.SUBCKT ADDFX1_LP A B CI CO S
*.PININFO A:I B:I CI:I CO:O S:O
Mmn9 n6 A VSS! VSS! nfet_01v8 W=420n L=150n M=1
Mmn10 n7 B n6 VSS! nfet_01v8 W=420n L=150n M=1
Mmn11 Sb CI n7 VSS! nfet_01v8 W=420n L=150n M=1
Mmn13 S Sb VSS! VSS! nfet_01v8 W=420n L=150n M=1
Mmn12 CO COb VSS! VSS! nfet_01v8 W=420n L=150n M=1
Mmn1 COb B n0 VSS! nfet_01v8 W=420n L=150n M=1
Mmn2 n2 A VSS! VSS! nfet_01v8 W=420n L=150n M=1
Mmn0 n0 A VSS! VSS! nfet_01v8 W=420n L=150n M=1
Mmn7 n4 CI VSS! VSS! nfet_01v8 W=420n L=150n M=1
Mmn8 Sb COb n4 VSS! nfet_01v8 W=420n L=150n M=1
Mmn3 n2 B VSS! VSS! nfet_01v8 W=420n L=150n M=1
Mmn6 n4 B VSS! VSS! nfet_01v8 W=420n L=150n M=1
Mmn5 n4 A VSS! VSS! nfet_01v8 W=420n L=150n M=1
Mmn4 COb CI n2 VSS! nfet_01v8 W=420n L=150n M=1
Mmp9 n8 A VDD! VDD! pfet_01v8_hvt W=540n L=150n M=1
Mmp10 n9 B n8 VDD! pfet_01v8_hvt W=540n L=150n M=1
Mmp11 Sb CI n9 VDD! pfet_01v8_hvt W=540n L=150n M=1
Mmp13 S Sb VDD! VDD! pfet_01v8_hvt W=620n L=150n M=1
Mmp12 CO COb VDD! VDD! pfet_01v8_hvt W=620n L=150n M=1
Mmp1 COb B n1 VDD! pfet_01v8_hvt W=540n L=150n M=1
Mmp0 n1 A VDD! VDD! pfet_01v8_hvt W=540n L=150n M=1
Mmp2 n3 A VDD! VDD! pfet_01v8_hvt W=540n L=150n M=1
Mmp4 COb CI n3 VDD! pfet_01v8_hvt W=540n L=150n M=1
Mmp5 n5 A VDD! VDD! pfet_01v8_hvt W=540n L=150n M=1
Mmp6 n5 B VDD! VDD! pfet_01v8_hvt W=540n L=150n M=1
Mmp7 n5 CI VDD! VDD! pfet_01v8_hvt W=540n L=150n M=1
Mmp3 n3 B VDD! VDD! pfet_01v8_hvt W=540n L=150n M=1
Mmp8 Sb COb n5 VDD! pfet_01v8_hvt W=540n L=150n M=1
.ENDS

************************************************************************
* auCdl Netlist:
* 
* Library Name:  sky130_scl_9T_LP
* Top Cell Name: ADDHX1_LP
* View Name:     schematic
* Netlisted on:  Feb 28 11:48:28 2025
************************************************************************

*.BIPOLAR
*.RESI = 2000
*.RESVAL
*.CAPVAL
*.DIOPERI
*.DIOAREA
*.EQUATION
*.SCALE METER
*.MEGA
.PARAM

*.GLOBAL VDD!
+        VSS!

*.PIN VDD!
*+    VSS!

************************************************************************
* Library Name: sky130_scl_9T_LP
* Cell Name:    ADDHX1_LP
* View Name:    schematic
************************************************************************

.SUBCKT ADDHX1_LP A B CO S
*.PININFO A:I B:I CO:O S:O
Mmn8 CO COb VSS! VSS! nfet_01v8 W=420n L=150n M=1
Mmn7 COb B n4 VSS! nfet_01v8 W=420n L=150n M=1
Mmn6 n4 A VSS! VSS! nfet_01v8 W=420n L=150n M=1
Mmn5 S Sb VSS! VSS! nfet_01v8 W=420n L=150n M=1
Mmn3 Sb B n2 VSS! nfet_01v8 W=420n L=150n M=1
Mmn2 n2 n0 VSS! VSS! nfet_01v8 W=420n L=150n M=1
Mmn1 n1 B VSS! VSS! nfet_01v8 W=420n L=150n M=1
Mmn4 Sb n1 n0 VSS! nfet_01v8 W=420n L=150n M=1
Mmn0 n0 A VSS! VSS! nfet_01v8 W=420n L=150n M=1
Mmp8 CO COb VDD! VDD! pfet_01v8_hvt W=620n L=150n M=1
Mmp5 S Sb VDD! VDD! pfet_01v8_hvt W=620n L=150n M=1
Mmp2 n3 n0 VDD! VDD! pfet_01v8_hvt W=540n L=150n M=1
Mmp3 Sb n1 n3 VDD! pfet_01v8_hvt W=540n L=150n M=1
Mmp4 Sb B n0 VDD! pfet_01v8_hvt W=540n L=150n M=1
Mmp1 n1 B VDD! VDD! pfet_01v8_hvt W=540n L=150n M=1
Mmp7 COb B VDD! VDD! pfet_01v8_hvt W=540n L=150n M=1
Mmp0 n0 A VDD! VDD! pfet_01v8_hvt W=540n L=150n M=1
Mmp6 COb A VDD! VDD! pfet_01v8_hvt W=540n L=150n M=1
.ENDS

************************************************************************
* auCdl Netlist:
* 
* Library Name:  sky130_scl_9T_LP
* Top Cell Name: AND2X1_LP
* View Name:     schematic
* Netlisted on:  Feb 28 11:48:29 2025
************************************************************************

*.BIPOLAR
*.RESI = 2000
*.RESVAL
*.CAPVAL
*.DIOPERI
*.DIOAREA
*.EQUATION
*.SCALE METER
*.MEGA
.PARAM

*.GLOBAL VDD!
+        VSS!

*.PIN VDD!
*+    VSS!

************************************************************************
* Library Name: sky130_scl_9T_LP
* Cell Name:    AND2X1_LP
* View Name:    schematic
************************************************************************

.SUBCKT AND2X1_LP A B Y
*.PININFO A:I B:I Y:O
Mmn2 Y n0 VSS! VSS! nfet_01v8 W=420n L=150n M=1
Mmn0 net127 B VSS! VSS! nfet_01v8 W=420n L=150n M=1
Mmn1 n0 A net127 VSS! nfet_01v8 W=420n L=150n M=1
Mmp1 n0 B VDD! VDD! pfet_01v8_hvt W=540n L=150n M=1
Mmp0 n0 A VDD! VDD! pfet_01v8_hvt W=540n L=150n M=1
Mmp2 Y n0 VDD! VDD! pfet_01v8_hvt W=620n L=150n M=1
.ENDS

************************************************************************
* auCdl Netlist:
* 
* Library Name:  sky130_scl_9T_LP
* Top Cell Name: AND2X2_LP
* View Name:     schematic
* Netlisted on:  Feb 28 11:48:31 2025
************************************************************************

*.BIPOLAR
*.RESI = 2000
*.RESVAL
*.CAPVAL
*.DIOPERI
*.DIOAREA
*.EQUATION
*.SCALE METER
*.MEGA
.PARAM

*.GLOBAL VDD!
+        VSS!

*.PIN VDD!
*+    VSS!

************************************************************************
* Library Name: sky130_scl_9T_LP
* Cell Name:    AND2X2_LP
* View Name:    schematic
************************************************************************

.SUBCKT AND2X2_LP A B Y
*.PININFO A:I B:I Y:O
Mmn2 Y n0 VSS! VSS! nfet_01v8 W=840n L=150n M=1
Mmn0 net73 A VSS! VSS! nfet_01v8 W=420n L=150n M=1
Mmn1 n0 B net73 VSS! nfet_01v8 W=420n L=150n M=1
Mmp1 n0 B VDD! VDD! pfet_01v8_hvt W=540n L=150n M=1
Mmp0 n0 A VDD! VDD! pfet_01v8_hvt W=540n L=150n M=1
Mmp2 Y n0 VDD! VDD! pfet_01v8_hvt W=1.24u L=150n M=1
.ENDS

************************************************************************
* auCdl Netlist:
* 
* Library Name:  sky130_scl_9T_LP
* Top Cell Name: AND3X1_LP
* View Name:     schematic
* Netlisted on:  Feb 28 11:48:32 2025
************************************************************************

*.BIPOLAR
*.RESI = 2000
*.RESVAL
*.CAPVAL
*.DIOPERI
*.DIOAREA
*.EQUATION
*.SCALE METER
*.MEGA
.PARAM

*.GLOBAL VDD!
+        VSS!

*.PIN VDD!
*+    VSS!

************************************************************************
* Library Name: sky130_scl_9T_LP
* Cell Name:    AND3X1_LP
* View Name:    schematic
************************************************************************

.SUBCKT AND3X1_LP A B C Y
*.PININFO A:I B:I C:I Y:O
Mmn3 Y net086 VSS! VSS! nfet_01v8 W=420n L=150n M=1
Mmn1 net0106 B net0102 VSS! nfet_01v8 W=420n L=150n M=1
Mmn0 net0102 A VSS! VSS! nfet_01v8 W=420n L=150n M=1
Mmn2 net086 C net0106 VSS! nfet_01v8 W=420n L=150n M=1
Mmp1 net086 B VDD! VDD! pfet_01v8_hvt W=540n L=150n M=1
Mmp2 net086 C VDD! VDD! pfet_01v8_hvt W=540n L=150n M=1
Mmp0 net086 A VDD! VDD! pfet_01v8_hvt W=540n L=150n M=1
Mmp3 Y net086 VDD! VDD! pfet_01v8_hvt W=620n L=150n M=1
.ENDS

************************************************************************
* auCdl Netlist:
* 
* Library Name:  sky130_scl_9T_LP
* Top Cell Name: AND3X2_LP
* View Name:     schematic
* Netlisted on:  Feb 28 11:48:33 2025
************************************************************************

*.BIPOLAR
*.RESI = 2000
*.RESVAL
*.CAPVAL
*.DIOPERI
*.DIOAREA
*.EQUATION
*.SCALE METER
*.MEGA
.PARAM

*.GLOBAL VSS!
+        VDD!

*.PIN VSS!
*+    VDD!

************************************************************************
* Library Name: sky130_scl_9T_LP
* Cell Name:    AND3X2_LP
* View Name:    schematic
************************************************************************

.SUBCKT AND3X2_LP A B C Y
*.PININFO A:I B:I C:I Y:O
Mmn3 Y net95 VSS! VSS! nfet_01v8 W=840n L=150n M=1
Mmn1 net111 B net103 VSS! nfet_01v8 W=420n L=150n M=1
Mmn0 net103 A VSS! VSS! nfet_01v8 W=420n L=150n M=1
Mmn2 net95 C net111 VSS! nfet_01v8 W=420n L=150n M=1
Mmp1 net95 B VDD! VDD! pfet_01v8_hvt W=540n L=150n M=1
Mmp2 net95 C VDD! VDD! pfet_01v8_hvt W=540n L=150n M=1
Mmp0 net95 A VDD! VDD! pfet_01v8_hvt W=540n L=150n M=1
Mmp3 Y net95 VDD! VDD! pfet_01v8_hvt W=1.24u L=150n M=1
.ENDS

************************************************************************
* auCdl Netlist:
* 
* Library Name:  sky130_scl_9T_LP
* Top Cell Name: AND4X1_LP
* View Name:     schematic
* Netlisted on:  Feb 28 11:48:35 2025
************************************************************************

*.BIPOLAR
*.RESI = 2000
*.RESVAL
*.CAPVAL
*.DIOPERI
*.DIOAREA
*.EQUATION
*.SCALE METER
*.MEGA
.PARAM

*.GLOBAL VSS!
+        VDD!

*.PIN VSS!
*+    VDD!

************************************************************************
* Library Name: sky130_scl_9T_LP
* Cell Name:    AND4X1_LP
* View Name:    schematic
************************************************************************

.SUBCKT AND4X1_LP A B C D Y
*.PININFO A:I B:I C:I D:I Y:O
Mmn3 net116 D net132 VSS! nfet_01v8 W=420n L=150n M=1
Mmn2 net132 C net128 VSS! nfet_01v8 W=420n L=150n M=1
Mmn4 Y net116 VSS! VSS! nfet_01v8 W=420n L=150n M=1
Mmn1 net128 B net124 VSS! nfet_01v8 W=420n L=150n M=1
Mmn0 net124 A VSS! VSS! nfet_01v8 W=420n L=150n M=1
Mmp3 net116 D VDD! VDD! pfet_01v8_hvt W=540n L=150n M=1
Mmp2 net116 C VDD! VDD! pfet_01v8_hvt W=540n L=150n M=1
Mmp1 net116 B VDD! VDD! pfet_01v8_hvt W=540n L=150n M=1
Mmp4 Y net116 VDD! VDD! pfet_01v8_hvt W=620n L=150n M=1
Mmp0 net116 A VDD! VDD! pfet_01v8_hvt W=540n L=150n M=1
.ENDS

************************************************************************
* auCdl Netlist:
* 
* Library Name:  sky130_scl_9T_LP
* Top Cell Name: AND4X2_LP
* View Name:     schematic
* Netlisted on:  Feb 28 11:48:36 2025
************************************************************************

*.BIPOLAR
*.RESI = 2000
*.RESVAL
*.CAPVAL
*.DIOPERI
*.DIOAREA
*.EQUATION
*.SCALE METER
*.MEGA
.PARAM

*.GLOBAL VSS!
+        VDD!

*.PIN VSS!
*+    VDD!

************************************************************************
* Library Name: sky130_scl_9T_LP
* Cell Name:    AND4X2_LP
* View Name:    schematic
************************************************************************

.SUBCKT AND4X2_LP A B C D Y
*.PININFO A:I B:I C:I D:I Y:O
Mmn3 net100 D net132 VSS! nfet_01v8 W=420n L=150n M=1
Mmn2 net132 C net124 VSS! nfet_01v8 W=420n L=150n M=1
Mmn4 Y net100 VSS! VSS! nfet_01v8 W=840n L=150n M=1
Mmn1 net124 B net120 VSS! nfet_01v8 W=420n L=150n M=1
Mmn0 net120 A VSS! VSS! nfet_01v8 W=420n L=150n M=1
Mmp3 net100 D VDD! VDD! pfet_01v8_hvt W=540n L=150n M=1
Mmp2 net100 C VDD! VDD! pfet_01v8_hvt W=540n L=150n M=1
Mmp1 net100 B VDD! VDD! pfet_01v8_hvt W=540n L=150n M=1
Mmp4 Y net100 VDD! VDD! pfet_01v8_hvt W=1.24u L=150n M=1
Mmp0 net100 A VDD! VDD! pfet_01v8_hvt W=540n L=150n M=1
.ENDS

************************************************************************
* auCdl Netlist:
* 
* Library Name:  sky130_scl_9T_LP
* Top Cell Name: AOI211X1_LP
* View Name:     schematic
* Netlisted on:  Feb 28 11:48:37 2025
************************************************************************

*.BIPOLAR
*.RESI = 2000
*.RESVAL
*.CAPVAL
*.DIOPERI
*.DIOAREA
*.EQUATION
*.SCALE METER
*.MEGA
.PARAM

*.GLOBAL VDD!
+        VSS!

*.PIN VDD!
*+    VSS!

************************************************************************
* Library Name: sky130_scl_9T_LP
* Cell Name:    AOI211X1_LP
* View Name:    schematic
************************************************************************

.SUBCKT AOI211X1_LP A0 A1 B0 C0 Y
*.PININFO A0:I A1:I B0:I C0:I Y:O
Mmn2 Y B0 VSS! VSS! nfet_01v8 W=420n L=150n M=1
Mmn3 Y C0 VSS! VSS! nfet_01v8 W=420n L=150n M=1
Mmn1 Y A1 net95 VSS! nfet_01v8 W=420n L=150n M=1
Mmn0 net95 A0 VSS! VSS! nfet_01v8 W=420n L=150n M=1
Mmp3 Y C0 net82 VDD! pfet_01v8_hvt W=620n L=150n M=1
Mmp2 net82 B0 net91 VDD! pfet_01v8_hvt W=620n L=150n M=1
Mmp1 net91 A1 VDD! VDD! pfet_01v8_hvt W=620n L=150n M=1
Mmp0 net91 A0 VDD! VDD! pfet_01v8_hvt W=620n L=150n M=1
.ENDS

************************************************************************
* auCdl Netlist:
* 
* Library Name:  sky130_scl_9T_LP
* Top Cell Name: AOI211X2_LP
* View Name:     schematic
* Netlisted on:  Feb 28 11:48:39 2025
************************************************************************

*.BIPOLAR
*.RESI = 2000
*.RESVAL
*.CAPVAL
*.DIOPERI
*.DIOAREA
*.EQUATION
*.SCALE METER
*.MEGA
.PARAM

*.GLOBAL VSS!
+        VDD!

*.PIN VSS!
*+    VDD!

************************************************************************
* Library Name: sky130_scl_9T_LP
* Cell Name:    AOI211X2_LP
* View Name:    schematic
************************************************************************

.SUBCKT AOI211X2_LP A0 A1 B0 C0 Y
*.PININFO A0:I A1:I B0:I C0:I Y:O
Mmn2 Y B0 VSS! VSS! nfet_01v8 W=840n L=150n M=1
Mmn3 Y C0 VSS! VSS! nfet_01v8 W=840n L=150n M=1
Mmn1 Y A1 net95 VSS! nfet_01v8 W=840n L=150n M=1
Mmn0 net95 A0 VSS! VSS! nfet_01v8 W=840n L=150n M=1
Mmp3 Y C0 net82 VDD! pfet_01v8_hvt W=1.24u L=150n M=1
Mmp2 net82 B0 net91 VDD! pfet_01v8_hvt W=1.24u L=150n M=1
Mmp1 net91 A1 VDD! VDD! pfet_01v8_hvt W=1.24u L=150n M=1
Mmp0 net91 A0 VDD! VDD! pfet_01v8_hvt W=1.24u L=150n M=1
.ENDS

************************************************************************
* auCdl Netlist:
* 
* Library Name:  sky130_scl_9T_LP
* Top Cell Name: AOI21X1_LP
* View Name:     schematic
* Netlisted on:  Feb 28 11:48:40 2025
************************************************************************

*.BIPOLAR
*.RESI = 2000
*.RESVAL
*.CAPVAL
*.DIOPERI
*.DIOAREA
*.EQUATION
*.SCALE METER
*.MEGA
.PARAM

*.GLOBAL VSS!
+        VDD!

*.PIN VSS!
*+    VDD!

************************************************************************
* Library Name: sky130_scl_9T_LP
* Cell Name:    AOI21X1_LP
* View Name:    schematic
************************************************************************

.SUBCKT AOI21X1_LP A0 A1 B0 Y
*.PININFO A0:I A1:I B0:I Y:O
Mmn2 Y B0 VSS! VSS! nfet_01v8 W=420n L=150n M=1
Mmn0 net78 A0 VSS! VSS! nfet_01v8 W=420n L=150n M=1
Mmn1 Y A1 net78 VSS! nfet_01v8 W=420n L=150n M=1
Mmp2 Y B0 net62 VDD! pfet_01v8_hvt W=620n L=150n M=1
Mmp1 net62 A1 VDD! VDD! pfet_01v8_hvt W=620n L=150n M=1
Mmp0 net62 A0 VDD! VDD! pfet_01v8_hvt W=620n L=150n M=1
.ENDS

************************************************************************
* auCdl Netlist:
* 
* Library Name:  sky130_scl_9T_LP
* Top Cell Name: AOI21X2_LP
* View Name:     schematic
* Netlisted on:  Feb 28 11:48:41 2025
************************************************************************

*.BIPOLAR
*.RESI = 2000
*.RESVAL
*.CAPVAL
*.DIOPERI
*.DIOAREA
*.EQUATION
*.SCALE METER
*.MEGA
.PARAM

*.GLOBAL VSS!
+        VDD!

*.PIN VSS!
*+    VDD!

************************************************************************
* Library Name: sky130_scl_9T_LP
* Cell Name:    AOI21X2_LP
* View Name:    schematic
************************************************************************

.SUBCKT AOI21X2_LP A0 A1 B0 Y
*.PININFO A0:I A1:I B0:I Y:O
Mmn2 Y B0 VSS! VSS! nfet_01v8 W=840n L=150n M=1
Mmn0 net74 A0 VSS! VSS! nfet_01v8 W=840n L=150n M=1
Mmn1 Y A1 net74 VSS! nfet_01v8 W=840n L=150n M=1
Mmp2 Y B0 net70 VDD! pfet_01v8_hvt W=1.24u L=150n M=1
Mmp1 net70 A1 VDD! VDD! pfet_01v8_hvt W=1.24u L=150n M=1
Mmp0 net70 A0 VDD! VDD! pfet_01v8_hvt W=1.24u L=150n M=1
.ENDS

************************************************************************
* auCdl Netlist:
* 
* Library Name:  sky130_scl_9T_LP
* Top Cell Name: AOI221X1_LP
* View Name:     schematic
* Netlisted on:  Feb 28 11:48:43 2025
************************************************************************

*.BIPOLAR
*.RESI = 2000
*.RESVAL
*.CAPVAL
*.DIOPERI
*.DIOAREA
*.EQUATION
*.SCALE METER
*.MEGA
.PARAM

*.GLOBAL VSS!
+        VDD!

*.PIN VSS!
*+    VDD!

************************************************************************
* Library Name: sky130_scl_9T_LP
* Cell Name:    AOI221X1_LP
* View Name:    schematic
************************************************************************

.SUBCKT AOI221X1_LP A0 A1 B0 B1 C0 Y
*.PININFO A0:I A1:I B0:I B1:I C0:I Y:O
Mmn2 net120 B0 VSS! VSS! nfet_01v8 W=420n L=150n M=1
Mmn3 Y B1 net120 VSS! nfet_01v8 W=420n L=150n M=1
Mmn4 Y C0 VSS! VSS! nfet_01v8 W=420n L=150n M=1
Mmn1 Y A1 net128 VSS! nfet_01v8 W=420n L=150n M=1
Mmn0 net128 A0 VSS! VSS! nfet_01v8 W=420n L=150n M=1
Mmp3 net108 B1 net111 VDD! pfet_01v8_hvt W=620n L=150n M=1
Mmp2 net108 B0 net111 VDD! pfet_01v8_hvt W=620n L=150n M=1
Mmp0 net111 A0 VDD! VDD! pfet_01v8_hvt W=620n L=150n M=1
Mmp1 net111 A1 VDD! VDD! pfet_01v8_hvt W=620n L=150n M=1
Mmp4 Y C0 net108 VDD! pfet_01v8_hvt W=620n L=150n M=1
.ENDS

************************************************************************
* auCdl Netlist:
* 
* Library Name:  sky130_scl_9T_LP
* Top Cell Name: AOI221X2_LP
* View Name:     schematic
* Netlisted on:  Feb 28 11:48:44 2025
************************************************************************

*.BIPOLAR
*.RESI = 2000
*.RESVAL
*.CAPVAL
*.DIOPERI
*.DIOAREA
*.EQUATION
*.SCALE METER
*.MEGA
.PARAM

*.GLOBAL VSS!
+        VDD!

*.PIN VSS!
*+    VDD!

************************************************************************
* Library Name: sky130_scl_9T_LP
* Cell Name:    AOI221X2_LP
* View Name:    schematic
************************************************************************

.SUBCKT AOI221X2_LP A0 A1 B0 B1 C0 Y
*.PININFO A0:I A1:I B0:I B1:I C0:I Y:O
Mmn2 Y B0 net116 VSS! nfet_01v8 W=840n L=150n M=1
Mmn3 net116 B1 VSS! VSS! nfet_01v8 W=840n L=150n M=1
Mmn4 Y C0 VSS! VSS! nfet_01v8 W=840n L=150n M=1
Mmn1 Y A1 net124 VSS! nfet_01v8 W=840n L=150n M=1
Mmn0 net124 A0 VSS! VSS! nfet_01v8 W=840n L=150n M=1
Mmp3 net104 B1 net103 VDD! pfet_01v8_hvt W=1.24u L=150n M=1
Mmp2 net104 B0 net103 VDD! pfet_01v8_hvt W=1.24u L=150n M=1
Mmp0 net103 A0 VDD! VDD! pfet_01v8_hvt W=1.24u L=150n M=1
Mmp1 net103 A1 VDD! VDD! pfet_01v8_hvt W=1.24u L=150n M=1
Mmp4 Y C0 net104 VDD! pfet_01v8_hvt W=1.24u L=150n M=1
.ENDS

************************************************************************
* auCdl Netlist:
* 
* Library Name:  sky130_scl_9T_LP
* Top Cell Name: AOI222X1_LP
* View Name:     schematic
* Netlisted on:  Feb 28 11:48:45 2025
************************************************************************

*.BIPOLAR
*.RESI = 2000
*.RESVAL
*.CAPVAL
*.DIOPERI
*.DIOAREA
*.EQUATION
*.SCALE METER
*.MEGA
.PARAM

*.GLOBAL VDD!
+        VSS!

*.PIN VDD!
*+    VSS!

************************************************************************
* Library Name: sky130_scl_9T_LP
* Cell Name:    AOI222X1_LP
* View Name:    schematic
************************************************************************

.SUBCKT AOI222X1_LP A0 A1 B0 B1 C0 C1 Y
*.PININFO A0:I A1:I B0:I B1:I C0:I C1:I Y:O
Mmn5 Y C1 net155 VSS! nfet_01v8 W=420n L=150n M=1
Mmn4 net155 C0 VSS! VSS! nfet_01v8 W=420n L=150n M=1
Mmn2 net147 B0 VSS! VSS! nfet_01v8 W=420n L=150n M=1
Mmn0 net139 A0 VSS! VSS! nfet_01v8 W=420n L=150n M=1
Mmn1 Y A1 net139 VSS! nfet_01v8 W=420n L=150n M=1
Mmn3 Y B1 net147 VSS! nfet_01v8 W=420n L=150n M=1
Mmp5 Y C1 net118 VDD! pfet_01v8_hvt W=620n L=150n M=1
Mmp4 Y C0 net118 VDD! pfet_01v8_hvt W=620n L=150n M=1
Mmp3 net118 B1 net122 VDD! pfet_01v8_hvt W=620n L=150n M=1
Mmp2 net118 B0 net122 VDD! pfet_01v8_hvt W=620n L=150n M=1
Mmp0 net122 A0 VDD! VDD! pfet_01v8_hvt W=620n L=150n M=1
Mmp1 net122 A1 VDD! VDD! pfet_01v8_hvt W=620n L=150n M=1
.ENDS

************************************************************************
* auCdl Netlist:
* 
* Library Name:  sky130_scl_9T_LP
* Top Cell Name: AOI222X2_LP
* View Name:     schematic
* Netlisted on:  Feb 28 11:48:47 2025
************************************************************************

*.BIPOLAR
*.RESI = 2000
*.RESVAL
*.CAPVAL
*.DIOPERI
*.DIOAREA
*.EQUATION
*.SCALE METER
*.MEGA
.PARAM

*.GLOBAL VSS!
+        VDD!

*.PIN VSS!
*+    VDD!

************************************************************************
* Library Name: sky130_scl_9T_LP
* Cell Name:    AOI222X2_LP
* View Name:    schematic
************************************************************************

.SUBCKT AOI222X2_LP A0 A1 B0 B1 C0 C1 Y
*.PININFO A0:I A1:I B0:I B1:I C0:I C1:I Y:O
Mmn5 Y C1 net155 VSS! nfet_01v8 W=840n L=150n M=1
Mmn4 net155 C0 VSS! VSS! nfet_01v8 W=840n L=150n M=1
Mmn2 net151 B0 VSS! VSS! nfet_01v8 W=840n L=150n M=1
Mmn0 net147 A0 VSS! VSS! nfet_01v8 W=840n L=150n M=1
Mmn1 Y A1 net147 VSS! nfet_01v8 W=840n L=150n M=1
Mmn3 Y B1 net151 VSS! nfet_01v8 W=840n L=150n M=1
Mmp5 Y C1 net134 VDD! pfet_01v8_hvt W=1.24u L=150n M=1
Mmp4 Y C0 net134 VDD! pfet_01v8_hvt W=1.24u L=150n M=1
Mmp3 net134 B1 net126 VDD! pfet_01v8_hvt W=1.24u L=150n M=1
Mmp2 net134 B0 net126 VDD! pfet_01v8_hvt W=1.24u L=150n M=1
Mmp0 net126 A0 VDD! VDD! pfet_01v8_hvt W=1.24u L=150n M=1
Mmp1 net126 A1 VDD! VDD! pfet_01v8_hvt W=1.24u L=150n M=1
.ENDS

************************************************************************
* auCdl Netlist:
* 
* Library Name:  sky130_scl_9T_LP
* Top Cell Name: AOI22X1_LP
* View Name:     schematic
* Netlisted on:  Feb 28 11:48:48 2025
************************************************************************

*.BIPOLAR
*.RESI = 2000
*.RESVAL
*.CAPVAL
*.DIOPERI
*.DIOAREA
*.EQUATION
*.SCALE METER
*.MEGA
.PARAM

*.GLOBAL VDD!
+        VSS!

*.PIN VDD!
*+    VSS!

************************************************************************
* Library Name: sky130_scl_9T_LP
* Cell Name:    AOI22X1_LP
* View Name:    schematic
************************************************************************

.SUBCKT AOI22X1_LP A0 A1 B0 B1 Y
*.PININFO A0:I A1:I B0:I B1:I Y:O
Mmn3 Y B1 net98 VSS! nfet_01v8 W=420n L=150n M=1
Mmn0 net102 A0 VSS! VSS! nfet_01v8 W=420n L=150n M=1
Mmn2 net98 B0 VSS! VSS! nfet_01v8 W=420n L=150n M=1
Mmn1 Y A1 net102 VSS! nfet_01v8 W=420n L=150n M=1
Mmp3 Y B1 net89 VDD! pfet_01v8_hvt W=620n L=150n M=1
Mmp0 net89 A0 VDD! VDD! pfet_01v8_hvt W=620n L=150n M=1
Mmp1 net89 A1 VDD! VDD! pfet_01v8_hvt W=620n L=150n M=1
Mmp2 Y B0 net89 VDD! pfet_01v8_hvt W=620n L=150n M=1
.ENDS

************************************************************************
* auCdl Netlist:
* 
* Library Name:  sky130_scl_9T_LP
* Top Cell Name: AOI22X2_LP
* View Name:     schematic
* Netlisted on:  Feb 28 11:48:49 2025
************************************************************************

*.BIPOLAR
*.RESI = 2000
*.RESVAL
*.CAPVAL
*.DIOPERI
*.DIOAREA
*.EQUATION
*.SCALE METER
*.MEGA
.PARAM

*.GLOBAL VSS!
+        VDD!

*.PIN VSS!
*+    VDD!

************************************************************************
* Library Name: sky130_scl_9T_LP
* Cell Name:    AOI22X2_LP
* View Name:    schematic
************************************************************************

.SUBCKT AOI22X2_LP A0 A1 B0 B1 Y
*.PININFO A0:I A1:I B0:I B1:I Y:O
Mmn3 Y B1 net106 VSS! nfet_01v8 W=840n L=150n M=1
Mmn0 net98 A0 VSS! VSS! nfet_01v8 W=840n L=150n M=1
Mmn2 net106 B0 VSS! VSS! nfet_01v8 W=840n L=150n M=1
Mmn1 Y A1 net98 VSS! nfet_01v8 W=840n L=150n M=1
Mmp3 Y B1 net89 VDD! pfet_01v8_hvt W=1.24u L=150n M=1
Mmp0 net89 A0 VDD! VDD! pfet_01v8_hvt W=1.24u L=150n M=1
Mmp1 net89 A1 VDD! VDD! pfet_01v8_hvt W=1.24u L=150n M=1
Mmp2 Y B0 net89 VDD! pfet_01v8_hvt W=1.24u L=150n M=1
.ENDS

************************************************************************
* auCdl Netlist:
* 
* Library Name:  sky130_scl_9T_LP
* Top Cell Name: BUFX16_LP
* View Name:     schematic
* Netlisted on:  Feb 28 11:48:51 2025
************************************************************************

*.BIPOLAR
*.RESI = 2000
*.RESVAL
*.CAPVAL
*.DIOPERI
*.DIOAREA
*.EQUATION
*.SCALE METER
*.MEGA
.PARAM

*.GLOBAL VSS!
+        VDD!

*.PIN VSS!
*+    VDD!

************************************************************************
* Library Name: sky130_scl_9T_LP
* Cell Name:    BUFX16_LP
* View Name:    schematic
************************************************************************

.SUBCKT BUFX16_LP A Y
*.PININFO A:I Y:O
Mmn1 VSS! n0 Y VSS! nfet_01v8 W=6.72u L=150n M=1
Mmn0 VSS! A n0 VSS! nfet_01v8 W=1.68u L=150n M=1
Mmp1 Y n0 VDD! VDD! pfet_01v8_hvt W=9.92u L=150n M=1
Mmp0 n0 A VDD! VDD! pfet_01v8_hvt W=2.48u L=150n M=1
.ENDS

************************************************************************
* auCdl Netlist:
* 
* Library Name:  sky130_scl_9T_LP
* Top Cell Name: BUFX2_LP
* View Name:     schematic
* Netlisted on:  Feb 28 11:48:52 2025
************************************************************************

*.BIPOLAR
*.RESI = 2000
*.RESVAL
*.CAPVAL
*.DIOPERI
*.DIOAREA
*.EQUATION
*.SCALE METER
*.MEGA
.PARAM

*.GLOBAL VSS!
+        VDD!

*.PIN VSS!
*+    VDD!

************************************************************************
* Library Name: sky130_scl_9T_LP
* Cell Name:    BUFX2_LP
* View Name:    schematic
************************************************************************

.SUBCKT BUFX2_LP A Y
*.PININFO A:I Y:O
Mmn1 VSS! n0 Y VSS! nfet_01v8 W=840n L=150n M=1
Mmn0 VSS! A n0 VSS! nfet_01v8 W=420n L=150n M=1
Mmp1 Y n0 VDD! VDD! pfet_01v8_hvt W=1.24u L=150n M=1
Mmp0 n0 A VDD! VDD! pfet_01v8_hvt W=540n L=150n M=1
.ENDS

************************************************************************
* auCdl Netlist:
* 
* Library Name:  sky130_scl_9T_LP
* Top Cell Name: BUFX4_LP
* View Name:     schematic
* Netlisted on:  Feb 28 11:48:53 2025
************************************************************************

*.BIPOLAR
*.RESI = 2000
*.RESVAL
*.CAPVAL
*.DIOPERI
*.DIOAREA
*.EQUATION
*.SCALE METER
*.MEGA
.PARAM

*.GLOBAL VSS!
+        VDD!

*.PIN VSS!
*+    VDD!

************************************************************************
* Library Name: sky130_scl_9T_LP
* Cell Name:    BUFX4_LP
* View Name:    schematic
************************************************************************

.SUBCKT BUFX4_LP A Y
*.PININFO A:I Y:O
Mmn1 VSS! n0 Y VSS! nfet_01v8 W=1.68u L=150n M=1
Mmn0 VSS! A n0 VSS! nfet_01v8 W=420n L=150n M=1
Mmp1 Y n0 VDD! VDD! pfet_01v8_hvt W=2.48u L=150n M=1
Mmp0 n0 A VDD! VDD! pfet_01v8_hvt W=620n L=150n M=1
.ENDS

************************************************************************
* auCdl Netlist:
* 
* Library Name:  sky130_scl_9T_LP
* Top Cell Name: BUFX8_LP
* View Name:     schematic
* Netlisted on:  Feb 28 11:48:55 2025
************************************************************************

*.BIPOLAR
*.RESI = 2000
*.RESVAL
*.CAPVAL
*.DIOPERI
*.DIOAREA
*.EQUATION
*.SCALE METER
*.MEGA
.PARAM

*.GLOBAL VSS!
+        VDD!

*.PIN VSS!
*+    VDD!

************************************************************************
* Library Name: sky130_scl_9T_LP
* Cell Name:    BUFX8_LP
* View Name:    schematic
************************************************************************

.SUBCKT BUFX8_LP A Y
*.PININFO A:I Y:O
Mmn1 VSS! n0 Y VSS! nfet_01v8 W=3.36u L=150n M=1
Mmn0 VSS! A n0 VSS! nfet_01v8 W=840n L=150n M=1
Mmp1 Y n0 VDD! VDD! pfet_01v8_hvt W=4.96u L=150n M=1
Mmp0 n0 A VDD! VDD! pfet_01v8_hvt W=1.24u L=150n M=1
.ENDS

************************************************************************
* auCdl Netlist:
* 
* Library Name:  sky130_scl_9T_LP
* Top Cell Name: CLKAND2X2_LP
* View Name:     schematic
* Netlisted on:  Feb 28 11:48:56 2025
************************************************************************

*.BIPOLAR
*.RESI = 2000
*.RESVAL
*.CAPVAL
*.DIOPERI
*.DIOAREA
*.EQUATION
*.SCALE METER
*.MEGA
.PARAM

*.GLOBAL VDD!
+        VSS!

*.PIN VDD!
*+    VSS!

************************************************************************
* Library Name: sky130_scl_9T_LP
* Cell Name:    CLKAND2X2_LP
* View Name:    schematic
************************************************************************

.SUBCKT CLKAND2X2_LP A B Y
*.PININFO A:I B:I Y:O
MNM1 net2 A VSS! VSS! nfet_01v8 W=420n L=150n M=1
MNM0 net61 B net2 VSS! nfet_01v8 W=420n L=150n M=1
Mmn2 Y net61 VSS! VSS! nfet_01v8 W=820n L=150n M=1
Mmp1 net61 B VDD! VDD! pfet_01v8_hvt W=540n L=150n M=1
Mmp0 net61 A VDD! VDD! pfet_01v8_hvt W=540n L=150n M=1
Mmp2 Y net61 VDD! VDD! pfet_01v8_hvt W=1.36u L=150n M=1
.ENDS

************************************************************************
* auCdl Netlist:
* 
* Library Name:  sky130_scl_9T_LP
* Top Cell Name: CLKBUFX2_LP
* View Name:     schematic
* Netlisted on:  Feb 28 11:48:58 2025
************************************************************************

*.BIPOLAR
*.RESI = 2000
*.RESVAL
*.CAPVAL
*.DIOPERI
*.DIOAREA
*.EQUATION
*.SCALE METER
*.MEGA
.PARAM

*.GLOBAL VDD!
+        VSS!

*.PIN VDD!
*+    VSS!

************************************************************************
* Library Name: sky130_scl_9T_LP
* Cell Name:    CLKBUFX2_LP
* View Name:    schematic
************************************************************************

.SUBCKT CLKBUFX2_LP A Y
*.PININFO A:I Y:O
Mmn1 Y net44 VSS! VSS! nfet_01v8 W=840n L=150n M=1
Mmn0 net44 A VSS! VSS! nfet_01v8 W=840n L=150n M=1
Mmp1 Y net44 VDD! VDD! pfet_01v8_hvt W=2.72u L=150n M=1
Mmp0 net44 A VDD! VDD! pfet_01v8_hvt W=1.24u L=150n M=1
.ENDS

************************************************************************
* auCdl Netlist:
* 
* Library Name:  sky130_scl_9T_LP
* Top Cell Name: CLKBUFX4_LP
* View Name:     schematic
* Netlisted on:  Feb 28 11:48:59 2025
************************************************************************

*.BIPOLAR
*.RESI = 2000
*.RESVAL
*.CAPVAL
*.DIOPERI
*.DIOAREA
*.EQUATION
*.SCALE METER
*.MEGA
.PARAM

*.GLOBAL VSS!
+        VDD!

*.PIN VSS!
*+    VDD!

************************************************************************
* Library Name: sky130_scl_9T_LP
* Cell Name:    CLKBUFX4_LP
* View Name:    schematic
************************************************************************

.SUBCKT CLKBUFX4_LP A Y
*.PININFO A:I Y:O
Mmn1 Y net44 VSS! VSS! nfet_01v8 W=1.68u L=150n M=1
Mmn0 net44 A VSS! VSS! nfet_01v8 W=1u L=150n M=1
Mmp1 Y net44 VDD! VDD! pfet_01v8_hvt W=5.44u L=150n M=1
Mmp0 net44 A VDD! VDD! pfet_01v8_hvt W=1.36u L=150n M=1
.ENDS

************************************************************************
* auCdl Netlist:
* 
* Library Name:  sky130_scl_9T_LP
* Top Cell Name: CLKBUFX8_LP
* View Name:     schematic
* Netlisted on:  Feb 28 11:49:01 2025