*
*|DSPF 1.5
*
*|DATE "Thu Jan  9 00:08:57 2025"
*|VENDOR "Cadence Design Systems"
*|PROGRAM "Cadence Quantus Extraction"
*|VERSION "22.1.0-p089 Linux 64 bit - (Thu Jan 19 11:47:08 PST 2023)"
*|DESIGN ADDFX1_HS
*|DIVIDER /
*|DELIMITER :
*|DeviceFingerDelim "@"
*|BUSBIT []
*|GLOBAL_TEMPERATURE 25
*|OPERATING_TEMPERATURE 25

** *VIA_COVERAGE_CODES
** *index FF FS FP FU SF SS SP SU PF PS PP PU UF US UP UU X_by_Y
** * "FF" stands for Full landing and Full coverage
** *0 0 0 0 0 0 0 0 0 0 0 0 0 0 0 0 0
** *1 0 0 0 0 0 0 0 0 0 0 0 0 0 0 0 1 1x1
** *2 0 0 0 0 0 0 0 0 0 0 0 0 0 0 1 0 1x1
** *3 0 0 0 0 0 0 0 0 0 0 0 0 0 1 0 0 1x1
** *4 0 0 0 0 0 0 0 0 0 0 0 0 1 0 0 0 1x1
** *5 0 0 0 0 0 0 0 0 0 0 0 1 0 0 0 0 1x1
** *6 0 0 0 0 0 0 0 0 0 0 1 0 0 0 0 0 1x1
** *7 0 0 0 0 0 0 0 0 0 1 0 0 0 0 0 0 1x1
** *8 0 0 0 0 0 0 0 0 1 0 0 0 0 0 0 0 1x1
** *9 0 0 0 0 0 0 0 1 0 0 0 0 0 0 0 0 1x1
** *10 0 0 0 0 0 0 1 0 0 0 0 0 0 0 0 0 1x1
** *11 0 0 0 0 0 1 0 0 0 0 0 0 0 0 0 0 1x1
** *12 0 0 0 0 1 0 0 0 0 0 0 0 0 0 0 0 1x1
** *13 0 0 0 1 0 0 0 0 0 0 0 0 0 0 0 0 1x1
** *14 0 0 1 0 0 0 0 0 0 0 0 0 0 0 0 0 1x1
** *15 0 1 0 0 0 0 0 0 0 0 0 0 0 0 0 0 1x1
** *16 1 0 0 0 0 0 0 0 0 0 0 0 0 0 0 0 1x1

** *RESISTOR_TYPES
** *1 SHORTING_ELEMENT
** *2 PRES_NG
** *3 PRES_PG
** *4 PRES_NF
** *5 PRES_PF
** *6 TCN_NDIFF
** *7 TCN_PDIFF
** *8 TCN_NFIELD
** *9 TCN_PFIELD
** *10 QUALITY_EXTRACTED
** *11 GCNLAND
** *12 TCNLAND
** *13 DUMMY
** *14 RSD
** *15 BRIDGE

** *RESISTOR_CURRENT_DIRECTION
** *0 HORIZONTAL
** *1 VERTICAL
** *2 45 DEGREE

** QRC_TECH_DIR /vols/wfo_devel/projects/reference_SKY130/tech/sky130_release_0.0.4/quantus/extraction/typical 
** HIERARCHICAL_SPLIT_PINS_DELIMITER '%'
** caps2d version: 10
*
.SUBCKT  ADDFX1_HS A B CI CO S
*
*Net Section
*
*|GROUND_NET VSS!
*
*LAYER_MAP
*0 none
*1 metal1
*2 li
*3 poly
*4 diff
*5 licon_diff
*6 mcon
*7 licon
*8 FOX

*|NET CO 1.41748e-15
*|P (CO X 0 6.4550 1.8550) // $llx=6.4550 $lly=1.8550 $urx=6.4550 $ury=1.8550 $lvl=1
*|I (Mmp12:d Mmp12 d X 0 6.5995 3.0150) // $llx=6.5995 $lly=3.0150 $urx=6.5995 $ury=3.0150 $lvl=4
*|I (Mmn12:d Mmn12 d X 0 6.5995 0.7750) // $llx=6.5995 $lly=0.7750 $urx=6.5995 $ury=0.7750 $lvl=4
*|S (CO:1 6.4600 3.7450) // $llx=6.4600 $lly=3.7450 $urx=6.4600 $ury=3.7450 $lvl=2
*|S (CO:2 6.4600 3.0250) // $llx=6.4600 $lly=3.0250 $urx=6.4600 $ury=3.0250 $lvl=2
*|S (CO:4 6.4600 3.0150) // $llx=6.4600 $lly=3.0150 $urx=6.4600 $ury=3.0150 $lvl=2
*|S (CO:5 6.4600 2.2850) // $llx=6.4600 $lly=2.2850 $urx=6.4600 $ury=2.2850 $lvl=2
*|S (CO:6 6.4600 1.1550) // $llx=6.4600 $lly=1.1550 $urx=6.4600 $ury=1.1550 $lvl=2
*|S (CO:8 6.4600 0.7750) // $llx=6.4600 $lly=0.7750 $urx=6.4600 $ury=0.7750 $lvl=2
*|S (CO:9 6.4600 0.7400) // $llx=6.4600 $lly=0.7400 $urx=6.4600 $ury=0.7400 $lvl=2
*|S (CO:10 6.4425 1.0650) // $llx=6.4425 $lly=1.0650 $urx=6.4425 $ury=1.0650 $lvl=1
*|S (CO:11 6.4600 0.7400) // $llx=6.4600 $lly=0.7400 $urx=6.4600 $ury=0.7400 $lvl=1
*|S (CO:12 6.4425 0.6100) // $llx=6.4425 $lly=0.6100 $urx=6.4425 $ury=0.6100 $lvl=1
*|S (CO:13 6.4600 0.4150) // $llx=6.4600 $lly=0.4150 $urx=6.4600 $ury=0.4150 $lvl=1
*|S (CO:14 6.4600 3.0250) // $llx=6.4600 $lly=3.0250 $urx=6.4600 $ury=3.0250 $lvl=1
*|S (CO:15 6.4425 3.5300) // $llx=6.4425 $lly=3.5300 $urx=6.4425 $ury=3.5300 $lvl=1
CD1 Mmn12:d VSS! 2.00791e-18 $lvl=4
CD2 Mmp12:d VSS! 1.96954e-18 $lvl=4
CD3 CO:11 VSS! 4.49128e-18 $lvl=1
CD4 CO:12 VSS! 3.48111e-18 $lvl=1
CD5 CO:10 VSS! 7.51491e-18 $lvl=1
CD6 CO:15 VSS! 9.6105e-18 $lvl=1
CD7 CO:13 VSS! 2.96337e-18 $lvl=1
CD8 CO:6 VSS! 1.31242e-17 $lvl=2
CD9 CO:1 VSS! 4.30492e-18 $lvl=2
CD10 CO:5 VSS! 2.98045e-18 $lvl=2
CD11 CO:9 VSS! 1.69404e-18 $lvl=2
CD12 CO:2 VSS! 4.2803e-18 $lvl=2
CD13 CO VSS! 9.64608e-18 $lvl=1
CD14 CO Sb:18 6.11201e-18 $lvl1=1 $lvl2=2
CD15 CO:6 Sb:18 6.06898e-18 $lvl1=2 $lvl2=2
CD16 CO:10 Sb:18 5.31536e-18 $lvl1=1 $lvl2=2
CD17 CO:9 Sb:21 4.23216e-18 $lvl1=2 $lvl2=2
CD18 CO:10 Sb:21 3.86758e-18 $lvl1=1 $lvl2=2
CD19 CO:11 Sb:30 2.81462e-18 $lvl1=1 $lvl2=1
CD20 CO:15 Sb:30 2.694e-18 $lvl1=1 $lvl2=1
CD21 CO:1 Sb:17 2.23084e-18 $lvl1=2 $lvl2=2
CD22 CO:1 Sb:27 2.09696e-18 $lvl1=2 $lvl2=1
CD23 CO:9 Sb:20 1.59786e-18 $lvl1=2 $lvl2=2
CD24 CO:1 Sb:13 1.43369e-18 $lvl1=2 $lvl2=2
CD25 CO:10 Sb:27 1.20858e-18 $lvl1=1 $lvl2=1
CD26 CO:11 Sb:21 1.07617e-18 $lvl1=1 $lvl2=2
CD27 CO:15 Sb:17 1.00995e-18 $lvl1=1 $lvl2=2
CD28 CO:9 Sb:18 9.41107e-19 $lvl1=2 $lvl2=2
CD29 CO:15 Sb:16 9.11999e-19 $lvl1=1 $lvl2=2
CD30 CO:1 Sb:16 9.06847e-19 $lvl1=2 $lvl2=2
CD31 CO Sb:21 8.61876e-19 $lvl1=1 $lvl2=2
CD32 Mmn12:d Sb:20 8.44175e-19 $lvl1=4 $lvl2=2
CD33 CO:1 Sb:8 7.54367e-19 $lvl1=2 $lvl2=3
CD34 CO:6 Sb:10 6.94887e-19 $lvl1=2 $lvl2=3
CD35 CO:2 Sb:27 6.38217e-19 $lvl1=2 $lvl2=1
CD36 CO:15 Sb:13 6.3758e-19 $lvl1=1 $lvl2=2
CD37 CO:15 Sb:18 5.76311e-19 $lvl1=1 $lvl2=2
CD38 CO:5 Sb:27 5.64321e-19 $lvl1=2 $lvl2=1
CD39 CO:6 Sb:23 5.61237e-19 $lvl1=2 $lvl2=2
CD40 CO:10 Sb:23 4.92846e-19 $lvl1=1 $lvl2=2
CD41 CO:12 Sb:30 4.71326e-19 $lvl1=1 $lvl2=1
CD42 Mmn12:d Sb:21 4.5539e-19 $lvl1=4 $lvl2=2
CD43 CO:6 Sb 4.53878e-19 $lvl1=2 $lvl2=3
CD44 CO:11 Sb:20 4.25721e-19 $lvl1=1 $lvl2=2
CD45 CO:10 Sb:22 4.21433e-19 $lvl1=1 $lvl2=2
CD46 CO:11 Sb:18 4.14703e-19 $lvl1=1 $lvl2=2
CD47 CO Sb:10 4.02402e-19 $lvl1=1 $lvl2=3
CD48 CO:9 Sb:30 3.89636e-19 $lvl1=2 $lvl2=1
CD49 CO:1 Sb:20 3.76852e-19 $lvl1=2 $lvl2=2
CD50 CO:15 Sb:20 3.52426e-19 $lvl1=1 $lvl2=2
CD51 CO:6 Sb:26 3.47948e-19 $lvl1=2 $lvl2=2
CD52 CO:6 Sb:30 3.30776e-19 $lvl1=2 $lvl2=1
CD53 CO:5 Sb:17 3.2228e-19 $lvl1=2 $lvl2=2
CD54 CO:1 Sb:30 3.15434e-19 $lvl1=2 $lvl2=1
CD55 CO:10 Sb:30 8.36368e-18 $lvl1=1 $lvl2=1
CD56 CO:6 Sb:21 1.21197e-17 $lvl1=2 $lvl2=2
CD57 CO:15 Sb:27 1.65456e-17 $lvl1=1 $lvl2=1
CD58 CO Sb:30 9.53054e-18 $lvl1=1 $lvl2=1
CD59 CO:6 Sb:20 1.86858e-17 $lvl1=2 $lvl2=2
CD60 CO Sb:27 8.12778e-18 $lvl1=1 $lvl2=1
CD61 CO Sb:20 1.12571e-17 $lvl1=1 $lvl2=2
CD62 CO:10 Sb:20 9.7409e-18 $lvl1=1 $lvl2=2
CD63 CO COb:37 7.06774e-18 $lvl1=1 $lvl2=2
CD64 CO:1 COb:22 5.01502e-18 $lvl1=2 $lvl2=3
CD65 CO:1 COb:35 4.16945e-18 $lvl1=2 $lvl2=2
CD66 CO:15 COb:35 3.96821e-18 $lvl1=1 $lvl2=2
CD67 CO:1 COb:37 3.90156e-18 $lvl1=2 $lvl2=2
CD68 CO:5 COb:22 3.56276e-18 $lvl1=2 $lvl2=3
CD69 CO:1 COb:17 3.50789e-18 $lvl1=2 $lvl2=3
CD70 CO:15 COb:37 3.3322e-18 $lvl1=1 $lvl2=2
CD71 CO:5 COb:37 2.41344e-18 $lvl1=2 $lvl2=2
CD72 CO:1 COb:15 2.05801e-18 $lvl1=2 $lvl2=3
CD73 CO:6 COb 1.5466e-18 $lvl1=2 $lvl2=3
CD74 CO COb:22 1.22549e-18 $lvl1=1 $lvl2=3
CD75 Mmp12:d COb:22 1.16781e-18 $lvl1=4 $lvl2=3
CD76 CO:10 COb:37 1.05918e-18 $lvl1=1 $lvl2=2
CD77 CO:6 COb:22 8.8112e-19 $lvl1=2 $lvl2=3
CD78 CO:10 COb:35 7.64465e-19 $lvl1=1 $lvl2=2
CD79 CO:5 COb:20 6.97715e-19 $lvl1=2 $lvl2=3
CD80 Mmp12:d COb:17 6.95124e-19 $lvl1=4 $lvl2=3
CD81 CO COb:17 5.40358e-19 $lvl1=1 $lvl2=3
CD82 CO:5 COb:17 5.27685e-19 $lvl1=2 $lvl2=3
CD83 CO:6 COb:24 1.27713e-16 $lvl1=2 $lvl2=3
CD84 CO:1 COb:20 2.5143e-16 $lvl1=2 $lvl2=3
CD85 CO:5 COb:35 1.09002e-17 $lvl1=2 $lvl2=2
CD86 CO COb:35 1.80668e-17 $lvl1=1 $lvl2=2
CD87 CO:13 n4:14 6.25987e-18 $lvl1=1 $lvl2=1
CD88 CO:12 n4:14 6.15078e-18 $lvl1=1 $lvl2=1
CD89 CO:10 n4:14 5.95413e-18 $lvl1=1 $lvl2=1
CD90 CO:9 n4:9 4.6847e-18 $lvl1=2 $lvl2=2
CD91 CO:9 n4:12 3.74195e-18 $lvl1=2 $lvl2=2
CD92 Mmn12:d n4:9 3.63359e-18 $lvl1=4 $lvl2=2
CD93 CO:6 Mmn8:s 3.21702e-18 $lvl1=2 $lvl2=4
CD94 CO:6 n4:12 2.42964e-18 $lvl1=2 $lvl2=2
CD95 CO n4:14 1.64114e-18 $lvl1=1 $lvl2=1
CD96 CO:9 n4:14 1.60887e-18 $lvl1=2 $lvl2=1
CD97 CO:11 n4:12 9.50249e-19 $lvl1=1 $lvl2=2
CD98 CO:6 n4:9 2.27624e-17 $lvl1=2 $lvl2=2
CD99 CO:11 n4:14 1.26725e-17 $lvl1=1 $lvl2=1
CD100 CO:15 n5:14 4.59893e-18 $lvl1=1 $lvl2=2
CD101 Mmp12:d n5:11 4.33125e-18 $lvl1=4 $lvl2=2
CD102 CO:15 n5:11 2.98941e-18 $lvl1=1 $lvl2=2
CD103 CO:1 n5:14 2.96615e-18 $lvl1=2 $lvl2=2
CD104 CO:2 n5:14 2.50328e-18 $lvl1=2 $lvl2=2
CD105 CO:15 n5:15 2.29495e-18 $lvl1=1 $lvl2=2
CD106 CO:1 n5:16 1.96599e-18 $lvl1=2 $lvl2=1
CD107 CO:2 n5:11 1.66729e-18 $lvl1=2 $lvl2=2
CD108 CO:2 n5:16 1.43641e-18 $lvl1=2 $lvl2=1
CD109 CO:1 n5:15 8.99254e-18 $lvl1=2 $lvl2=2
CD110 CO:1 n5:11 4.65078e-17 $lvl1=2 $lvl2=2
CD111 CO:15 n5:16 4.09165e-17 $lvl1=1 $lvl2=1
CD112 CO:1 Mmp8:s 7.23563e-18 $lvl1=2 $lvl2=4
CD113 CO:12 VSS!:30 6.13414e-18 $lvl1=1 $lvl2=1
CD114 CO:11 VSS!:30 5.95432e-18 $lvl1=1 $lvl2=1
CD115 CO:10 VSS!:15 3.74696e-18 $lvl1=1 $lvl2=2
CD116 CO:11 VSS!:15 3.3915e-18 $lvl1=1 $lvl2=2
CD117 CO:9 VSS!:5 3.35606e-18 $lvl1=2 $lvl2=2
CD118 CO:10 VSS!:30 3.10251e-18 $lvl1=1 $lvl2=1
CD119 Mmn12:d VSS!:5 2.89996e-18 $lvl1=4 $lvl2=2
CD120 CO:9 VSS!:30 2.50554e-18 $lvl1=2 $lvl2=1
CD121 CO:6 VSS!:7 2.19944e-18 $lvl1=2 $lvl2=2
CD122 CO:6 VSS!:3 2.11796e-18 $lvl1=2 $lvl2=4
CD123 CO VSS!:30 2.04226e-18 $lvl1=1 $lvl2=1
CD124 CO:9 VSS!:7 1.92296e-18 $lvl1=2 $lvl2=2
CD125 CO:6 VSS!:30 1.75271e-18 $lvl1=2 $lvl2=1
CD126 CO:13 VSS!:7 1.41209e-18 $lvl1=1 $lvl2=2
CD127 CO:15 VSS!:30 1.34667e-18 $lvl1=1 $lvl2=1
CD128 CO:13 VSS!:5 1.13381e-18 $lvl1=1 $lvl2=2
CD129 CO:13 VSS!:15 1.1075e-18 $lvl1=1 $lvl2=2
CD130 CO:12 VSS!:15 1.10575e-18 $lvl1=1 $lvl2=2
CD131 CO:13 VSS!:29 6.341e-19 $lvl1=1 $lvl2=1
CD132 Mmn12:d VSS!:15 5.57481e-19 $lvl1=4 $lvl2=2
CD133 CO:10 VSS!:28 5.49464e-19 $lvl1=1 $lvl2=1
CD134 CO:11 VSS!:29 5.07446e-19 $lvl1=1 $lvl2=1
CD135 CO:6 VSS!:5 2.39144e-17 $lvl1=2 $lvl2=2
CD136 CO:9 VSS!:15 1.51539e-17 $lvl1=2 $lvl2=2
CD137 CO:13 VSS!:30 3.52353e-17 $lvl1=1 $lvl2=1
CD138 CO:6 VSS!:15 4.30151e-17 $lvl1=2 $lvl2=2
CD139 CO:5 VDD!:14 6.6554e-18 $lvl1=2 $lvl2=2
CD140 CO:1 VDD!:30 5.53722e-18 $lvl1=2 $lvl2=1
CD141 CO:10 VDD! 5.07853e-18 $lvl1=1 $lvl2=1
CD142 CO:1 VDD!:7 3.74727e-18 $lvl1=2 $lvl2=2
CD143 Mmp12:d VDD!:5 2.68423e-18 $lvl1=4 $lvl2=2
CD144 CO:11 VDD! 2.64941e-18 $lvl1=1 $lvl2=1
CD145 CO VDD!:14 2.51589e-18 $lvl1=1 $lvl2=2
CD146 CO:15 VDD!:5 2.25948e-18 $lvl1=1 $lvl2=2
CD147 CO:15 VDD!:29 2.22827e-18 $lvl1=1 $lvl2=1
CD148 CO:15 VDD!:7 2.03062e-18 $lvl1=1 $lvl2=2
CD149 CO VDD!:30 1.53392e-18 $lvl1=1 $lvl2=1
CD150 CO:1 VDD!:3 1.51931e-18 $lvl1=2 $lvl2=4
CD151 CO:15 VDD!:28 1.4682e-18 $lvl1=1 $lvl2=1
CD152 CO:2 VDD!:30 1.46468e-18 $lvl1=2 $lvl2=1
CD153 CO:1 Mmp12:s 1.39619e-18 $lvl1=2 $lvl2=4
CD154 CO:13 VDD! 1.28937e-18 $lvl1=1 $lvl2=1
CD155 Mmp12:d VDD!:14 1.09827e-18 $lvl1=4 $lvl2=2
CD156 CO:12 VDD! 8.63165e-19 $lvl1=1 $lvl2=1
CD157 CO:1 VDD! 2.00179e-17 $lvl1=2 $lvl2=1
CD158 CO:1 VDD!:14 9.53204e-17 $lvl1=2 $lvl2=2
CD159 CO:15 VDD!:30 3.43058e-17 $lvl1=1 $lvl2=1
CD160 CO:15 VDD! 1.47237e-17 $lvl1=1 $lvl2=1
CD161 CO:2 VDD!:14 7.20854e-18 $lvl1=2 $lvl2=2
CD162 CO:1 VDD!:5 2.62378e-17 $lvl1=2 $lvl2=2
CD163 CO:15 VDD!:14 1.6905e-17 $lvl1=1 $lvl2=2
CD164 CO VDD! 7.14953e-18 $lvl1=1 $lvl2=1
CD165 CO:15 S 5.937e-18 $lvl1=1 $lvl2=1
CD166 CO S:15 5.80249e-18 $lvl1=1 $lvl2=1
CD167 CO S:10 4.27977e-18 $lvl1=1 $lvl2=1
CD168 CO:10 S 3.9398e-18 $lvl1=1 $lvl2=1
CD169 CO:10 S:11 2.91607e-18 $lvl1=1 $lvl2=1
CD170 CO:11 S:11 2.76468e-18 $lvl1=1 $lvl2=1
CD171 CO:11 S:10 2.47506e-18 $lvl1=1 $lvl2=1
CD172 CO:1 S:15 1.59136e-18 $lvl1=2 $lvl2=1
CD173 CO:15 S:1 1.52016e-18 $lvl1=1 $lvl2=2
CD174 CO:2 S:15 1.41297e-18 $lvl1=2 $lvl2=1
CD175 CO:15 S:10 1.00131e-18 $lvl1=1 $lvl2=1
CD176 CO:11 S:13 9.92704e-19 $lvl1=1 $lvl2=1
CD177 CO:12 S:11 9.35976e-19 $lvl1=1 $lvl2=1
CD178 CO S:11 8.52691e-19 $lvl1=1 $lvl2=1
CD179 CO:11 S:12 8.22479e-19 $lvl1=1 $lvl2=1
CD180 CO:10 S:15 8.16693e-19 $lvl1=1 $lvl2=1
CD181 CO:13 S:11 7.73719e-19 $lvl1=1 $lvl2=1
CD182 CO:1 S:1 6.39945e-19 $lvl1=2 $lvl2=2
CD183 CO:11 S 6.36583e-19 $lvl1=1 $lvl2=1
CD184 CO:9 S:11 6.33451e-19 $lvl1=2 $lvl2=1
CD185 CO:10 S:12 6.15711e-19 $lvl1=1 $lvl2=1
CD186 CO:13 S:13 5.56477e-19 $lvl1=1 $lvl2=1
CD187 CO:13 S:12 5.48093e-19 $lvl1=1 $lvl2=1
CD188 CO:15 S:2 5.25887e-19 $lvl1=1 $lvl2=2
CD189 CO:15 S:5 4.94233e-19 $lvl1=1 $lvl2=2
CD190 CO:13 S:10 4.83284e-19 $lvl1=1 $lvl2=1
CD191 CO:12 S:10 4.53284e-19 $lvl1=1 $lvl2=1
CD192 CO:12 S:13 4.48264e-19 $lvl1=1 $lvl2=1
CD193 CO S:5 4.45693e-19 $lvl1=1 $lvl2=2
CD194 CO:10 S:9 4.13982e-19 $lvl1=1 $lvl2=2
CD195 CO S:1 4.10023e-19 $lvl1=1 $lvl2=2
CD196 CO:9 S:10 3.73829e-19 $lvl1=2 $lvl2=1
CD197 CO:10 S:13 3.68187e-19 $lvl1=1 $lvl2=1
CD198 CO:6 S:10 3.34635e-19 $lvl1=2 $lvl2=1
CD199 CO:11 S:9 3.2943e-19 $lvl1=1 $lvl2=2
CD200 CO:5 S:15 3.24817e-19 $lvl1=2 $lvl2=1
CD201 CO:11 S:15 3.22529e-19 $lvl1=1 $lvl2=1
CD202 CO:10 S:6 3.16604e-19 $lvl1=1 $lvl2=2
CD203 CO:2 S:2 3.11292e-19 $lvl1=2 $lvl2=2
CD204 CO:12 S:12 3.10109e-19 $lvl1=1 $lvl2=1
CD205 CO:9 S:9 2.75052e-19 $lvl1=2 $lvl2=2
CD206 CO:15 S:15 3.41859e-17 $lvl1=1 $lvl2=1
CD207 CO S 1.31931e-17 $lvl1=1 $lvl2=1
CD208 CO:10 S:10 6.61976e-18 $lvl1=1 $lvl2=1
ReD96 CO:10 CO:11 0.153302 $metal1  $L=0.325 $W=0.265000 $SI_W=0.265 $TYPE=10 $DIR=1 $LLX=6.310000 $LLY=0.740000 $URX=6.575000 $URY=1.065000 $lvl=1
ReD97 CO:11 CO:12 0.061321 $metal1  $L=0.13 $W=0.265000 $SI_W=0.265 $TYPE=10 $DIR=1 $LLX=6.310000 $LLY=0.610000 $URX=6.575000 $URY=0.740000 $lvl=1
ReD98 CO:12 CO:13 0.105978 $metal1  $L=0.195 $W=0.230000 $SI_W=0.23 $TYPE=10 $DIR=1 $LLX=6.345000 $LLY=0.415000 $URX=6.575000 $URY=0.610000 $lvl=1
ReD99 CO:10 CO 0.379808 $metal1  $L=0.79 $W=0.260000 $SI_W=0.26 $TYPE=10 $DIR=1 $LLX=6.310000 $LLY=1.065000 $URX=6.570000 $URY=1.855000 $lvl=1
ReD100 CO CO:14 0.557993 $metal1  $L=1.17 $W=0.260000 $SI_W=0.26 $TYPE=10 $DIR=1 $LLX=6.310000 $LLY=1.855000 $URX=6.570000 $URY=3.025000 $lvl=1
ReD101 CO:14 CO:15 0.238208 $metal1  $L=0.505 $W=0.265000 $SI_W=0.265 $TYPE=10 $DIR=1 $LLX=6.310000 $LLY=3.025000 $URX=6.575000 $URY=3.530000 $lvl=1
RfD102 CO:1 CO:2 54.211761 $li  $L=0.72 $W=0.170000 $SI_W=0.17 $TYPE=10 $DIR=1 $LLX=6.375000 $LLY=3.025000 $URX=6.545000 $URY=3.745000 $lvl=2
RfD103 CO:2 CO:4 0.143820 $li  $L=0.01 $W=0.170000 $SI_W=0.89 $TYPE=10 $DIR=1 $LLX=6.375000 $LLY=3.015000 $URX=6.545000 $URY=3.025000 $lvl=2
RfD104 CO:4 CO:5 54.964703 $li  $L=0.73 $W=0.170000 $SI_W=0.17 $TYPE=10 $DIR=1 $LLX=6.375000 $LLY=2.285000 $URX=6.545000 $URY=3.015000 $lvl=2
RfD105 CO:6 CO:8 28.611765 $li  $L=0.38 $W=0.170000 $SI_W=0.17 $TYPE=10 $DIR=1 $LLX=6.375000 $LLY=0.775000 $URX=6.545000 $URY=1.155000 $lvl=2
RfD106 CO:8 CO:9 0.923711 $li  $L=0.035 $W=0.170000 $SI_W=0.485 $TYPE=10 $DIR=1 $LLX=6.375000 $LLY=0.740000 $URX=6.545000 $URY=0.775000 $lvl=2
RhD107 Mmn12:d CO:8 7.500000 $licon_diff  $A=0.0578 $VC=0 $SAVL=0 $SAVC=0 $SI_A=0.0578 $COVER_DIR=0 $LLX=0.000000 $LLY=0.000000 $URX=-0.057800 $URY=-2.000000 $lvl=5
Rh_2_D108 Mmp12:d CO:4 3.750000 $licon_diff  $A=0.1156 $VC=0 $SAVL=0 $SAVC=0 $SI_A=0.1156 $COVER_DIR=0 $LLX=0.000000 $LLY=0.000000 $URX=-0.115600 $URY=-4.000000 $lvl=5
RjD109 CO:9 CO:11 76.000000 $mcon  $A=0.0578 $VC=0 $SAVL=0 $SAVC=0 $SI_A=0.0578 $COVER_DIR=0 $LLX=0.000000 $LLY=0.000000 $URX=-0.057800 $URY=-2.000000 $lvl=6
RjD110 CO:2 CO:14 50.666668 $mcon  $A=0.0867 $VC=0 $SAVL=0 $SAVC=0 $SI_A=0.0867 $COVER_DIR=0 $LLX=0.000000 $LLY=0.000000 $URX=-0.086700 $URY=-3.000000 $lvl=6
*
*|NET n2 7.4669e-16
*|I (Mmn3:d Mmn3 d X 0 2.2705 0.6075) // $llx=2.2705 $lly=0.6075 $urx=2.2705 $ury=0.6075 $lvl=4
*|I (Mmn2:d Mmn2 d X 0 1.6895 0.6075) // $llx=1.6895 $lly=0.6075 $urx=1.6895 $ury=0.6075 $lvl=4
*|I (Mmn4:s Mmn4 s X 0 1.4105 0.6075) // $llx=1.4105 $lly=0.6075 $urx=1.4105 $ury=0.6075 $lvl=4
*|S (n2 1.5500 0.8200) // $llx=1.5500 $lly=0.8200 $urx=1.5500 $ury=0.8200 $lvl=2
*|S (n2:2 1.5500 0.6050) // $llx=1.5500 $lly=0.6050 $urx=1.5500 $ury=0.6050 $lvl=2
*|S (n2:5 1.5500 0.3950) // $llx=1.5500 $lly=0.3950 $urx=1.5500 $ury=0.3950 $lvl=2
*|S (n2:6 2.4100 0.8200) // $llx=2.4100 $lly=0.8200 $urx=2.4100 $ury=0.8200 $lvl=2
*|S (n2:7 2.4100 0.6050) // $llx=2.4100 $lly=0.6050 $urx=2.4100 $ury=0.6050 $lvl=2
*|S (n2:10 2.4100 0.3950) // $llx=2.4100 $lly=0.3950 $urx=2.4100 $ury=0.3950 $lvl=2
*|S (n2:11 2.4100 0.6050) // $llx=2.4100 $lly=0.6050 $urx=2.4100 $ury=0.6050 $lvl=1
*|S (n2:12 2.2950 0.6050) // $llx=2.2950 $lly=0.6050 $urx=2.2950 $ury=0.6050 $lvl=1
*|S (n2:13 1.6645 0.6050) // $llx=1.6645 $lly=0.6050 $urx=1.6645 $ury=0.6050 $lvl=1
*|S (n2:14 1.5500 0.6050) // $llx=1.5500 $lly=0.6050 $urx=1.5500 $ury=0.6050 $lvl=1
CL1 Mmn2:d VSS! 1.51074e-18 $lvl=4
CL2 Mmn3:d VSS! 7.58998e-19 $lvl=4
CL3 n2:14 VSS! 8.23459e-18 $lvl=1
CL4 n2:12 VSS! 6.59293e-18 $lvl=1
CL5 n2:6 VSS! 7.14477e-18 $lvl=2
CL6 n2:10 VSS! 1.12866e-18 $lvl=2
CL7 n2:5 VSS! 1.72411e-18 $lvl=2
CL8 n2:2 VSS! 1.35211e-18 $lvl=2
CL9 n2:7 VSS! 2.59475e-18 $lvl=2
CL10 n2 VSS! 3.67886e-18 $lvl=2
CL11 n2:2 VSS!:10 3.03206e-18 $lvl1=2 $lvl2=2
CL12 n2:7 VSS!:10 2.64769e-18 $lvl1=2 $lvl2=2
CL13 n2:2 VSS!:30 2.46815e-18 $lvl1=2 $lvl2=1
CL14 n2:14 VSS!:7 2.40364e-18 $lvl1=1 $lvl2=2
CL15 n2:10 VSS!:9 2.32621e-18 $lvl1=2 $lvl2=2
CL16 n2:14 VSS!:10 2.18908e-18 $lvl1=1 $lvl2=2
CL17 n2:5 VSS!:7 2.11347e-18 $lvl1=2 $lvl2=2
CL18 n2:10 VSS!:7 2.06079e-18 $lvl1=2 $lvl2=2
CL19 Mmn3:d VSS!:10 1.93716e-18 $lvl1=4 $lvl2=2
CL20 n2:6 VSS!:3 1.89187e-18 $lvl1=2 $lvl2=4
CL21 n2:12 VSS!:10 1.87036e-18 $lvl1=1 $lvl2=2
CL22 n2:7 VSS!:30 1.78401e-18 $lvl1=2 $lvl2=1
CL23 n2:12 VSS!:7 1.74732e-18 $lvl1=1 $lvl2=2
CL24 n2:7 VSS!:7 1.58254e-18 $lvl1=2 $lvl2=2
CL25 n2:5 VSS!:30 1.5667e-18 $lvl1=2 $lvl2=1
CL26 n2:2 VSS!:7 1.49797e-18 $lvl1=2 $lvl2=2
CL27 n2:10 VSS!:30 1.47116e-18 $lvl1=2 $lvl2=1
CL28 Mmn2:d VSS!:10 1.45766e-18 $lvl1=4 $lvl2=2
CL29 Mmn3:d VSS!:9 1.18351e-18 $lvl1=4 $lvl2=2
CL30 n2 VSS!:3 6.12476e-19 $lvl1=2 $lvl2=4
CL31 n2:14 VSS!:31 5.80559e-19 $lvl1=1 $lvl2=1
CL32 n2:7 VSS!:9 5.24364e-19 $lvl1=2 $lvl2=2
CL33 n2:12 VSS!:9 4.74725e-19 $lvl1=1 $lvl2=2
CL34 Mmn2:d VSS!:24 4.48106e-19 $lvl1=4 $lvl2=2
CL35 n2 VSS!:11 4.24341e-19 $lvl1=2 $lvl2=2
CL36 n2 VSS!:7 4.04506e-19 $lvl1=2 $lvl2=2
CL37 Mmn3:d VSS!:24 3.85494e-19 $lvl1=4 $lvl2=2
CL38 n2:12 VSS!:31 3.83073e-19 $lvl1=1 $lvl2=1
CL39 n2:6 VSS!:30 3.78586e-19 $lvl1=2 $lvl2=1
CL40 n2:14 VSS!:24 6.77222e-18 $lvl1=1 $lvl2=2
CL41 n2:7 VSS!:24 7.35224e-18 $lvl1=2 $lvl2=2
CL42 n2:6 VSS!:10 6.63272e-18 $lvl1=2 $lvl2=2
CL43 n2 VSS!:24 1.91967e-17 $lvl1=2 $lvl2=2
CL44 n2:14 VSS!:30 4.51881e-17 $lvl1=1 $lvl2=1
CL45 n2:6 VSS!:9 4.13798e-18 $lvl1=2 $lvl2=2
CL46 n2:5 VSS!:10 1.21467e-17 $lvl1=2 $lvl2=2
CL47 n2 VSS!:10 6.8735e-18 $lvl1=2 $lvl2=2
CL48 n2:10 VSS!:10 1.05739e-17 $lvl1=2 $lvl2=2
CL49 n2:2 VSS!:24 7.35053e-18 $lvl1=2 $lvl2=2
CL50 n2:6 VSS!:24 1.85144e-17 $lvl1=2 $lvl2=2
CL51 n2:5 VSS!:24 4.44623e-18 $lvl1=2 $lvl2=2
CL52 n2:10 VSS!:24 5.14841e-18 $lvl1=2 $lvl2=2
CL53 n2:12 VSS!:24 7.13315e-18 $lvl1=1 $lvl2=2
CL54 n2:12 VSS!:30 4.93831e-17 $lvl1=1 $lvl2=1
ReL312 n2:11 n2:12 0.062765 $metal1  $L=0.1145 $W=0.290000 $SI_W=0.29 $TYPE=10 $DIR=0 $LLX=2.295000 $LLY=0.460000 $URX=2.409500 $URY=0.750000 $lvl=1
ReL313 n2:12 n2:13 0.562716 $metal1  $L=0.63 $W=0.140000 $SI_W=0.14 $TYPE=10 $DIR=0 $LLX=1.665000 $LLY=0.535000 $URX=2.295000 $URY=0.675000 $lvl=1
ReL314 n2:13 n2:14 0.062765 $metal1  $L=0.1145 $W=0.290000 $SI_W=0.29 $TYPE=10 $DIR=0 $LLX=1.550000 $LLY=0.460000 $URX=1.664500 $URY=0.750000 $lvl=1
RfL315 n2 n2:2 16.188236 $li  $L=0.215 $W=0.170000 $SI_W=0.17 $TYPE=10 $DIR=1 $LLX=1.465000 $LLY=0.605000 $URX=1.635000 $URY=0.820000 $lvl=2
RfL316 n2:2 n2:5 15.811765 $li  $L=0.21 $W=0.170000 $SI_W=0.17 $TYPE=10 $DIR=1 $LLX=1.465000 $LLY=0.395000 $URX=1.635000 $URY=0.605000 $lvl=2
RfL317 n2:6 n2:7 16.188236 $li  $L=0.215 $W=0.170000 $SI_W=0.17 $TYPE=10 $DIR=1 $LLX=2.325000 $LLY=0.605000 $URX=2.495000 $URY=0.820000 $lvl=2
RfL318 n2:7 n2:10 15.811765 $li  $L=0.21 $W=0.170000 $SI_W=0.17 $TYPE=10 $DIR=1 $LLX=2.325000 $LLY=0.395000 $URX=2.495000 $URY=0.605000 $lvl=2
RhL319 Mmn2:d n2:2 15.000000 $licon_diff  $L=0.17 $W=0.17 $A=0.0289 $VC=0 $SAVL=0 $SAVC=0 $SI_A=0.0289 $COVER_DIR=0 $LLX=0.000000 $LLY=0.000000 $URX=0.170000 $URY=0.170000 $lvl=5
RhL320 Mmn3:d n2:7 15.000000 $licon_diff  $L=0.17 $W=0.17 $A=0.0289 $VC=0 $SAVL=0 $SAVC=0 $SI_A=0.0289 $COVER_DIR=0 $LLX=0.000000 $LLY=0.000000 $URX=0.170000 $URY=0.170000 $lvl=5
RjL321 n2:7 n2:11 152.000000 $mcon  $L=0.17 $W=0.17 $A=0.0289 $VC=0 $SAVL=0 $SAVC=0 $SI_A=0.0289 $COVER_DIR=0 $LLX=0.000000 $LLY=0.000000 $URX=0.170000 $URY=0.170000 $lvl=6
RjL322 n2:2 n2:14 152.000000 $mcon  $L=0.17 $W=0.17 $A=0.0289 $VC=0 $SAVL=0 $SAVC=0 $SI_A=0.0289 $COVER_DIR=0 $LLX=0.000000 $LLY=0.000000 $URX=0.170000 $URY=0.170000 $lvl=6
RmwL323 Mmn4:s Mmn2:d 0.001000 $diff $W=1000000 $SI_W=1000000 $TYPE=1 $DIR=0
*
*|NET S 1.20645e-15
*|P (S X 0 7.3750 1.8550) // $llx=7.3750 $lly=1.8550 $urx=7.3750 $ury=1.8550 $lvl=1
*|I (Mmp13:d Mmp13 d X 0 7.1805 3.0150) // $llx=7.1805 $lly=3.0150 $urx=7.1805 $ury=3.0150 $lvl=4
*|I (Mmn13:d Mmn13 d X 0 7.1805 0.7750) // $llx=7.1805 $lly=0.7750 $urx=7.1805 $ury=0.7750 $lvl=4
*|S (S:1 7.3200 3.7450) // $llx=7.3200 $lly=3.7450 $urx=7.3200 $ury=3.7450 $lvl=2
*|S (S:2 7.3200 3.0250) // $llx=7.3200 $lly=3.0250 $urx=7.3200 $ury=3.0250 $lvl=2
*|S (S:4 7.3200 3.0150) // $llx=7.3200 $lly=3.0150 $urx=7.3200 $ury=3.0150 $lvl=2
*|S (S:5 7.3200 2.2850) // $llx=7.3200 $lly=2.2850 $urx=7.3200 $ury=2.2850 $lvl=2
*|S (S:6 7.3200 1.1550) // $llx=7.3200 $lly=1.1550 $urx=7.3200 $ury=1.1550 $lvl=2
*|S (S:8 7.3200 0.7750) // $llx=7.3200 $lly=0.7750 $urx=7.3200 $ury=0.7750 $lvl=2
*|S (S:9 7.3200 0.7400) // $llx=7.3200 $lly=0.7400 $urx=7.3200 $ury=0.7400 $lvl=2
*|S (S:10 7.3475 1.0650) // $llx=7.3475 $lly=1.0650 $urx=7.3475 $ury=1.0650 $lvl=1
*|S (S:11 7.3200 0.7400) // $llx=7.3200 $lly=0.7400 $urx=7.3200 $ury=0.7400 $lvl=1
*|S (S:12 7.3475 0.6100) // $llx=7.3475 $lly=0.6100 $urx=7.3475 $ury=0.6100 $lvl=1
*|S (S:13 7.3200 0.4150) // $llx=7.3200 $lly=0.4150 $urx=7.3200 $ury=0.4150 $lvl=1
*|S (S:14 7.3200 3.0250) // $llx=7.3200 $lly=3.0250 $urx=7.3200 $ury=3.0250 $lvl=1
*|S (S:15 7.3475 3.5300) // $llx=7.3475 $lly=3.5300 $urx=7.3475 $ury=3.5300 $lvl=1
CE1 Mmn13:d VSS! 1.14662e-18 $lvl=4
CE2 Mmp13:d VSS! 2.14794e-18 $lvl=4
CE3 S:11 VSS! 3.97719e-18 $lvl=1
CE4 S:12 VSS! 1.89837e-18 $lvl=1
CE5 S:10 VSS! 6.81902e-18 $lvl=1
CE6 S:15 VSS! 8.44729e-18 $lvl=1
CE7 S:13 VSS! 1.85526e-18 $lvl=1
CE8 S:6 VSS! 1.63194e-17 $lvl=2
CE9 S:1 VSS! 7.34367e-18 $lvl=2
CE10 S:5 VSS! 2.30719e-18 $lvl=2
CE11 S:9 VSS! 2.42565e-18 $lvl=2
CE12 S:2 VSS! 1.575e-18 $lvl=2
CE13 S VSS! 9.45251e-18 $lvl=1
CE14 S Sb:10 3.13675e-18 $lvl1=1 $lvl2=3
CE15 Mmn13:d Sb:10 2.24524e-18 $lvl1=4 $lvl2=3
CE16 S:9 Sb:18 1.67962e-18 $lvl1=2 $lvl2=2
CE17 S:15 Sb:27 1.34314e-18 $lvl1=1 $lvl2=1
CE18 S:15 Sb:18 1.25898e-18 $lvl1=1 $lvl2=2
CE19 S:5 Sb:18 1.07064e-18 $lvl1=2 $lvl2=2
CE20 S:5 Sb:8 1.04175e-18 $lvl1=2 $lvl2=3
CE21 S:10 Sb:10 1.03761e-18 $lvl1=1 $lvl2=3
CE22 S:5 Sb:10 9.85207e-19 $lvl1=2 $lvl2=3
CE23 S:1 Sb:10 8.65338e-19 $lvl1=2 $lvl2=3
CE24 S Sb:30 8.12125e-19 $lvl1=1 $lvl2=1
CE25 S:15 Sb:30 7.47376e-19 $lvl1=1 $lvl2=1
CE26 S:1 Sb:18 7.14833e-19 $lvl1=2 $lvl2=2
CE27 S:11 Sb:18 6.83198e-19 $lvl1=1 $lvl2=2
CE28 S Sb:27 5.82946e-19 $lvl1=1 $lvl2=1
CE29 S:15 Sb:10 5.34783e-19 $lvl1=1 $lvl2=3
CE30 S:10 Sb:30 5.27322e-19 $lvl1=1 $lvl2=1
CE31 S:6 Sb:18 1.48796e-17 $lvl1=2 $lvl2=2
CE32 S Sb:18 1.23269e-17 $lvl1=1 $lvl2=2
CE33 S:10 Sb:18 9.86183e-18 $lvl1=1 $lvl2=2
CE34 S:1 Sb:8 2.50124e-16 $lvl1=2 $lvl2=3
CE35 S:6 Sb:10 1.10572e-17 $lvl1=2 $lvl2=3
CE36 S:6 Sb 1.26861e-16 $lvl1=2 $lvl2=3
CE37 S COb:35 3.72031e-18 $lvl1=1 $lvl2=2
CE38 S:15 COb:35 1.30541e-18 $lvl1=1 $lvl2=2
CE39 S:5 COb:35 1.19048e-18 $lvl1=2 $lvl2=2
CE40 S COb:22 9.34621e-19 $lvl1=1 $lvl2=3
CE41 S:5 COb:22 7.13361e-19 $lvl1=2 $lvl2=3
CE42 S:11 VSS!:28 4.67024e-18 $lvl1=1 $lvl2=1
CE43 S:6 VSS!:5 4.66051e-18 $lvl1=2 $lvl2=2
CE44 S:11 VSS!:30 3.97632e-18 $lvl1=1 $lvl2=1
CE45 S:11 VSS!:15 3.91741e-18 $lvl1=1 $lvl2=2
CE46 S:10 VSS!:15 3.77601e-18 $lvl1=1 $lvl2=2
CE47 S:12 VSS!:28 3.33998e-18 $lvl1=1 $lvl2=1
CE48 S:12 VSS!:30 3.1375e-18 $lvl1=1 $lvl2=1
CE49 S:6 VSS!:3 3.00111e-18 $lvl1=2 $lvl2=4
CE50 S:10 VSS!:28 2.60914e-18 $lvl1=1 $lvl2=1
CE51 S:9 VSS!:2 2.52776e-18 $lvl1=2 $lvl2=2
CE52 S:10 VSS!:30 2.51086e-18 $lvl1=1 $lvl2=1
CE53 S:9 VSS!:28 2.39306e-18 $lvl1=2 $lvl2=1
CE54 S:6 VSS!:28 2.23164e-18 $lvl1=2 $lvl2=1
CE55 Mmn13:d VSS!:2 2.18727e-18 $lvl1=4 $lvl2=2
CE56 S:9 VSS!:1 2.03765e-18 $lvl1=2 $lvl2=2
CE57 S:11 VSS!:29 1.85996e-18 $lvl1=1 $lvl2=1
CE58 S VSS!:30 1.70577e-18 $lvl1=1 $lvl2=1
CE59 S:12 VSS!:29 1.6158e-18 $lvl1=1 $lvl2=1
CE60 S:15 VSS!:30 1.53816e-18 $lvl1=1 $lvl2=1
CE61 S VSS!:28 1.42182e-18 $lvl1=1 $lvl2=1
CE62 S:13 VSS!:2 1.39319e-18 $lvl1=1 $lvl2=2
CE63 S:9 VSS!:5 1.34541e-18 $lvl1=2 $lvl2=2
CE64 S:12 VSS!:15 1.31639e-18 $lvl1=1 $lvl2=2
CE65 S:9 VSS!:29 1.19479e-18 $lvl1=2 $lvl2=1
CE66 S:9 VSS!:30 1.1379e-18 $lvl1=2 $lvl2=1
CE67 S:13 VSS!:15 1.09679e-18 $lvl1=1 $lvl2=2
CE68 S:15 VSS!:28 1.05907e-18 $lvl1=1 $lvl2=1
CE69 Mmn13:d VSS!:15 1.00136e-18 $lvl1=4 $lvl2=2
CE70 S:6 VSS!:29 8.68948e-19 $lvl1=2 $lvl2=1
CE71 S:13 VSS!:1 8.59366e-19 $lvl1=1 $lvl2=2
CE72 S:10 VSS!:29 8.53445e-19 $lvl1=1 $lvl2=1
CE73 S:11 VSS!:1 8.15649e-19 $lvl1=1 $lvl2=2
CE74 Mmn13:d VSS!:5 7.04457e-19 $lvl1=4 $lvl2=2
CE75 S VSS!:15 6.62938e-19 $lvl1=1 $lvl2=2
CE76 S:6 VSS!:30 5.29802e-19 $lvl1=2 $lvl2=1
CE77 S:10 VSS!:1 4.94217e-19 $lvl1=1 $lvl2=2
CE78 S:13 VSS!:5 4.33033e-19 $lvl1=1 $lvl2=2
CE79 S:12 VSS!:1 4.27883e-19 $lvl1=1 $lvl2=2
CE80 S:6 VSS!:7 4.13463e-19 $lvl1=2 $lvl2=2
CE81 S:13 VSS!:7 4.11382e-19 $lvl1=1 $lvl2=2
CE82 S:15 VSS!:29 3.87037e-19 $lvl1=1 $lvl2=1
CE83 S:9 VSS!:7 3.56669e-19 $lvl1=2 $lvl2=2
CE84 S:11 VSS!:2 3.177e-19 $lvl1=1 $lvl2=2
CE85 S:13 VSS!:29 2.10576e-17 $lvl1=1 $lvl2=1
CE86 S:6 VSS!:1 6.87456e-18 $lvl1=2 $lvl2=2
CE87 S:6 VSS!:2 1.63586e-17 $lvl1=2 $lvl2=2
CE88 S:6 VSS!:15 4.28975e-17 $lvl1=2 $lvl2=2
CE89 S:13 VSS!:30 6.96703e-18 $lvl1=1 $lvl2=1
CE90 S:13 VSS!:28 1.00161e-17 $lvl1=1 $lvl2=1
CE91 S:9 VSS!:15 1.47384e-17 $lvl1=2 $lvl2=2
CE92 S:1 VDD!:5 5.8488e-18 $lvl1=2 $lvl2=2
CE93 S:1 VDD!:28 5.154e-18 $lvl1=2 $lvl2=1
CE94 S:5 VDD! 3.59773e-18 $lvl1=2 $lvl2=1
CE95 S:2 VDD!:14 3.57945e-18 $lvl1=2 $lvl2=2
CE96 S VDD!:14 3.3632e-18 $lvl1=1 $lvl2=2
CE97 S:1 VDD!:3 3.27495e-18 $lvl1=2 $lvl2=4
CE98 S:13 VDD! 3.26809e-18 $lvl1=1 $lvl2=1
CE99 S:12 VDD! 3.24035e-18 $lvl1=1 $lvl2=1
CE100 S:1 VDD!:29 2.99541e-18 $lvl1=2 $lvl2=1
CE101 S:15 VDD!:1 2.85575e-18 $lvl1=1 $lvl2=2
CE102 S:9 VDD! 2.85177e-18 $lvl1=2 $lvl2=1
CE103 Mmp13:d VDD!:2 2.3074e-18 $lvl1=4 $lvl2=2
CE104 S:15 VDD!:2 1.98498e-18 $lvl1=1 $lvl2=2
CE105 S VDD!:30 1.5837e-18 $lvl1=1 $lvl2=1
CE106 S:1 VDD!:30 1.53013e-18 $lvl1=2 $lvl2=1
CE107 S:15 VDD!:5 1.19557e-18 $lvl1=1 $lvl2=2
CE108 S:2 VDD! 1.03067e-18 $lvl1=2 $lvl2=1
CE109 Mmp13:d VDD!:5 8.11243e-19 $lvl1=4 $lvl2=2
CE110 Mmp13:d VDD!:14 7.55087e-19 $lvl1=4 $lvl2=2
CE111 S VDD!:28 6.26587e-19 $lvl1=1 $lvl2=1
CE112 S:15 VDD!:7 5.86931e-19 $lvl1=1 $lvl2=2
CE113 S:15 VDD!:3 5.36948e-19 $lvl1=1 $lvl2=4
CE114 S:10 VDD!:30 5.33929e-19 $lvl1=1 $lvl2=1
CE115 S:1 VDD!:7 4.57739e-19 $lvl1=2 $lvl2=2
CE116 S:11 VDD!:30 4.13827e-19 $lvl1=1 $lvl2=1
CE117 S:1 Mmp12:s 3.79907e-19 $lvl1=2 $lvl2=4
CE118 S:2 VDD!:28 3.50963e-19 $lvl1=2 $lvl2=1
CE119 S:11 VDD! 8.31234e-18 $lvl1=1 $lvl2=1
CE120 S:1 VDD!:1 8.81021e-18 $lvl1=2 $lvl2=2
CE121 S:10 VDD! 1.43335e-17 $lvl1=1 $lvl2=1
CE122 S:15 VDD!:14 2.00437e-17 $lvl1=1 $lvl2=2
CE123 S:15 VDD! 4.22561e-17 $lvl1=1 $lvl2=1
CE124 S:15 VDD!:29 1.28225e-17 $lvl1=1 $lvl2=1
CE125 S:5 VDD!:14 7.68215e-18 $lvl1=2 $lvl2=2
CE126 S:1 VDD!:14 9.75999e-17 $lvl1=2 $lvl2=2
CE127 S:1 VDD!:2 1.62413e-17 $lvl1=2 $lvl2=2
CE128 S:15 VDD!:30 1.43497e-17 $lvl1=1 $lvl2=1
CE129 S:15 VDD!:28 1.60636e-17 $lvl1=1 $lvl2=1
CE130 S VDD! 2.20906e-17 $lvl1=1 $lvl2=1
CE131 S:6 VDD! 1.27039e-17 $lvl1=2 $lvl2=1
CE132 S:1 VDD! 4.45552e-17 $lvl1=2 $lvl2=1
ReE111 S:10 S:11 0.142544 $metal1  $L=0.325 $W=0.285000 $SI_W=0.285 $TYPE=10 $DIR=1 $LLX=7.205000 $LLY=0.740000 $URX=7.490000 $URY=1.065000 $lvl=1
ReE112 S:11 S:12 0.057018 $metal1  $L=0.13 $W=0.285000 $SI_W=0.285 $TYPE=10 $DIR=1 $LLX=7.205000 $LLY=0.610000 $URX=7.490000 $URY=0.740000 $lvl=1
ReE113 S:12 S:13 0.105978 $metal1  $L=0.195 $W=0.230000 $SI_W=0.23 $TYPE=10 $DIR=1 $LLX=7.205000 $LLY=0.415000 $URX=7.435000 $URY=0.610000 $lvl=1
ReE114 S:10 S 0.379808 $metal1  $L=0.79 $W=0.260000 $SI_W=0.26 $TYPE=10 $DIR=1 $LLX=7.230000 $LLY=1.065000 $URX=7.490000 $URY=1.855000 $lvl=1
ReE115 S S:14 0.542405 $metal1  $L=1.17 $W=0.260000 $SI_W=0.26 $TYPE=10 $DIR=1 $LLX=7.230000 $LLY=1.855000 $URX=7.490000 $URY=3.025000 $lvl=1
ReE116 S:14 S:15 0.221491 $metal1  $L=0.505 $W=0.285000 $SI_W=0.285 $TYPE=10 $DIR=1 $LLX=7.205000 $LLY=3.025000 $URX=7.490000 $URY=3.530000 $lvl=1
RfE117 S:1 S:2 54.211761 $li  $L=0.72 $W=0.170000 $SI_W=0.17 $TYPE=10 $DIR=1 $LLX=7.235000 $LLY=3.025000 $URX=7.405000 $URY=3.745000 $lvl=2
RfE118 S:2 S:4 0.143820 $li  $L=0.01 $W=0.170000 $SI_W=0.89 $TYPE=10 $DIR=1 $LLX=7.235000 $LLY=3.015000 $URX=7.405000 $URY=3.025000 $lvl=2
RfE119 S:4 S:5 54.964703 $li  $L=0.73 $W=0.170000 $SI_W=0.17 $TYPE=10 $DIR=1 $LLX=7.235000 $LLY=2.285000 $URX=7.405000 $URY=3.015000 $lvl=2
RfE120 S:6 S:8 28.611765 $li  $L=0.38 $W=0.170000 $SI_W=0.17 $TYPE=10 $DIR=1 $LLX=7.235000 $LLY=0.775000 $URX=7.405000 $URY=1.155000 $lvl=2
RfE121 S:8 S:9 0.923711 $li  $L=0.035 $W=0.170000 $SI_W=0.485 $TYPE=10 $DIR=1 $LLX=7.235000 $LLY=0.740000 $URX=7.405000 $URY=0.775000 $lvl=2
RhE122 Mmn13:d S:8 7.500000 $licon_diff  $A=0.0578 $VC=0 $SAVL=0 $SAVC=0 $SI_A=0.0578 $COVER_DIR=0 $LLX=0.000000 $LLY=0.000000 $URX=-0.057800 $URY=-2.000000 $lvl=5
Rh_2_E123 Mmp13:d S:4 3.750000 $licon_diff  $A=0.1156 $VC=0 $SAVL=0 $SAVC=0 $SI_A=0.1156 $COVER_DIR=0 $LLX=0.000000 $LLY=0.000000 $URX=-0.115600 $URY=-4.000000 $lvl=5
RjE124 S:9 S:11 76.000000 $mcon  $A=0.0578 $VC=0 $SAVL=0 $SAVC=0 $SI_A=0.0578 $COVER_DIR=0 $LLX=0.000000 $LLY=0.000000 $URX=-0.057800 $URY=-2.000000 $lvl=6
RjE125 S:2 S:14 50.666668 $mcon  $A=0.0867 $VC=0 $SAVL=0 $SAVC=0 $SI_A=0.0867 $COVER_DIR=0 $LLX=0.000000 $LLY=0.000000 $URX=-0.086700 $URY=-3.000000 $lvl=6
*
*|NET B 2.64792e-15
*|P (B X 0 4.6150 1.5500) // $llx=4.6150 $lly=1.5500 $urx=4.6150 $ury=1.5500 $lvl=1
*|I (Mmp10:g Mmp10 g X 0 4.8650 3.3550) // $llx=4.8650 $lly=3.3550 $urx=4.8650 $ury=3.3550 $lvl=3
*|I (Mmp3:g Mmp3 g X 0 2.1950 3.3550) // $llx=2.1950 $lly=3.3550 $urx=2.1950 $ury=3.3550 $lvl=3
*|I (Mmp1:g Mmp1 g X 0 0.9050 3.3550) // $llx=0.9050 $lly=3.3550 $urx=0.9050 $ury=3.3550 $lvl=3
*|I (Mmp6:g Mmp6 g X 0 3.5750 3.3550) // $llx=3.5750 $lly=3.3550 $urx=3.5750 $ury=3.3550 $lvl=3
*|I (Mmn3:g Mmn3 g X 0 2.1950 0.6075) // $llx=2.1950 $lly=0.6075 $urx=2.1950 $ury=0.6075 $lvl=3
*|I (Mmn10:g Mmn10 g X 0 4.8650 0.6075) // $llx=4.8650 $lly=0.6075 $urx=4.8650 $ury=0.6075 $lvl=3