*
*|DSPF 1.5
*
*|DATE "Thu Jan  9 00:03:54 2025"
*|VENDOR "Cadence Design Systems"
*|PROGRAM "Cadence Quantus Extraction"
*|VERSION "22.1.0-p089 Linux 64 bit - (Thu Jan 19 11:47:08 PST 2023)"
*|DESIGN ADDHX1_HS
*|DIVIDER /
*|DELIMITER :
*|DeviceFingerDelim "@"
*|BUSBIT []
*|GLOBAL_TEMPERATURE 25
*|OPERATING_TEMPERATURE 25

** *VIA_COVERAGE_CODES
** *index FF FS FP FU SF SS SP SU PF PS PP PU UF US UP UU X_by_Y
** * "FF" stands for Full landing and Full coverage
** *0 0 0 0 0 0 0 0 0 0 0 0 0 0 0 0 0
** *1 0 0 0 0 0 0 0 0 0 0 0 0 0 0 0 1 1x1
** *2 0 0 0 0 0 0 0 0 0 0 0 0 0 0 1 0 1x1
** *3 0 0 0 0 0 0 0 0 0 0 0 0 0 1 0 0 1x1
** *4 0 0 0 0 0 0 0 0 0 0 0 0 1 0 0 0 1x1
** *5 0 0 0 0 0 0 0 0 0 0 0 1 0 0 0 0 1x1
** *6 0 0 0 0 0 0 0 0 0 0 1 0 0 0 0 0 1x1
** *7 0 0 0 0 0 0 0 0 0 1 0 0 0 0 0 0 1x1
** *8 0 0 0 0 0 0 0 0 1 0 0 0 0 0 0 0 1x1
** *9 0 0 0 0 0 0 0 1 0 0 0 0 0 0 0 0 1x1
** *10 0 0 0 0 0 0 1 0 0 0 0 0 0 0 0 0 1x1
** *11 0 0 0 0 0 1 0 0 0 0 0 0 0 0 0 0 1x1
** *12 0 0 0 0 1 0 0 0 0 0 0 0 0 0 0 0 1x1
** *13 0 0 0 1 0 0 0 0 0 0 0 0 0 0 0 0 1x1
** *14 0 0 1 0 0 0 0 0 0 0 0 0 0 0 0 0 1x1
** *15 0 1 0 0 0 0 0 0 0 0 0 0 0 0 0 0 1x1
** *16 1 0 0 0 0 0 0 0 0 0 0 0 0 0 0 0 1x1

** *RESISTOR_TYPES
** *1 SHORTING_ELEMENT
** *2 PRES_NG
** *3 PRES_PG
** *4 PRES_NF
** *5 PRES_PF
** *6 TCN_NDIFF
** *7 TCN_PDIFF
** *8 TCN_NFIELD
** *9 TCN_PFIELD
** *10 QUALITY_EXTRACTED
** *11 GCNLAND
** *12 TCNLAND
** *13 DUMMY
** *14 RSD
** *15 BRIDGE

** *RESISTOR_CURRENT_DIRECTION
** *0 HORIZONTAL
** *1 VERTICAL
** *2 45 DEGREE

** QRC_TECH_DIR /vols/wfo_devel/projects/reference_SKY130/tech/sky130_release_0.0.4/quantus/extraction/typical 
** HIERARCHICAL_SPLIT_PINS_DELIMITER '%'
** caps2d version: 10
*
.SUBCKT  ADDHX1_HS A B CO S
*
*Net Section
*
*|GROUND_NET VSS!
*
*LAYER_MAP
*0 none
*1 metal1
*2 li
*3 poly
*4 diff
*5 licon_diff
*6 mcon
*7 licon
*8 FOX

*|NET VDD! 3.67095e-15
*|P (VDD! X 0 2.4150 4.1450) // $llx=2.4150 $lly=4.1450 $urx=2.4150 $ury=4.1450 $lvl=1
*|I (Mmp8:s Mmp8 s X 0 4.4795 3.0150) // $llx=4.4795 $lly=3.0150 $urx=4.4795 $ury=3.0150 $lvl=4
*|I (Mmp8:b Mmp8 b X 0 4.5550 3.0150) // $llx=4.5550 $lly=3.0150 $urx=4.5550 $ury=3.0150 $lvl=8
*|I (Mmp5:s Mmp5 s X 0 0.5505 3.0150) // $llx=0.5505 $lly=3.0150 $urx=0.5505 $ury=3.0150 $lvl=4
*|I (Mmp5:b Mmp5 b X 0 0.4750 3.0150) // $llx=0.4750 $lly=3.0150 $urx=0.4750 $ury=3.0150 $lvl=8
*|I (Mmp3:b Mmp3 b X 0 1.3950 3.3550) // $llx=1.3950 $lly=3.3550 $urx=1.3950 $ury=3.3550 $lvl=8
*|I (Mmp4:b Mmp4 b X 0 1.8250 3.3550) // $llx=1.8250 $lly=3.3550 $urx=1.8250 $ury=3.3550 $lvl=8
*|I (Mmp1:s Mmp1 s X 0 2.6095 3.3550) // $llx=2.6095 $lly=3.3550 $urx=2.6095 $ury=3.3550 $lvl=4
*|I (Mmp1:b Mmp1 b X 0 2.6850 3.3550) // $llx=2.6850 $lly=3.3550 $urx=2.6850 $ury=3.3550 $lvl=8
*|I (Mmp7:s Mmp7 s X 0 3.5595 3.3550) // $llx=3.5595 $lly=3.3550 $urx=3.5595 $ury=3.3550 $lvl=4
*|I (Mmp7:b Mmp7 b X 0 3.6350 3.3550) // $llx=3.6350 $lly=3.3550 $urx=3.6350 $ury=3.3550 $lvl=8
*|I (Mmp2:s Mmp2 s X 0 0.8895 3.3550) // $llx=0.8895 $lly=3.3550 $urx=0.8895 $ury=3.3550 $lvl=4
*|I (Mmp2:b Mmp2 b X 0 0.9650 3.3550) // $llx=0.9650 $lly=3.3550 $urx=0.9650 $ury=3.3550 $lvl=8
*|I (Mmp0:s Mmp0 s X 0 2.3305 3.3550) // $llx=2.3305 $lly=3.3550 $urx=2.3305 $ury=3.3550 $lvl=4
*|I (Mmp0:b Mmp0 b X 0 2.2550 3.3550) // $llx=2.2550 $lly=3.3550 $urx=2.2550 $ury=3.3550 $lvl=8
*|I (Mmp6:s Mmp6 s X 0 4.1405 3.3550) // $llx=4.1405 $lly=3.3550 $urx=4.1405 $ury=3.3550 $lvl=4
*|I (Mmp6:b Mmp6 b X 0 4.0650 3.3550) // $llx=4.0650 $lly=3.3550 $urx=4.0650 $ury=3.3550 $lvl=8
*|S (VDD!:1 0.6900 2.2850) // $llx=0.6900 $lly=2.2850 $urx=0.6900 $ury=2.2850 $lvl=2
*|S (VDD!:3 0.6900 3.0150) // $llx=0.6900 $lly=3.0150 $urx=0.6900 $ury=3.0150 $lvl=2
*|S (VDD!:4 0.6900 4.1400) // $llx=0.6900 $lly=4.1400 $urx=0.6900 $ury=4.1400 $lvl=2
*|S (VDD!:5 2.5300 4.1400) // $llx=2.5300 $lly=4.1400 $urx=2.5300 $ury=4.1400 $lvl=2
*|S (VDD!:6 2.5300 4.1400) // $llx=2.5300 $lly=4.1400 $urx=2.5300 $ury=4.1400 $lvl=4
*|S (VDD!:8 0.0000 4.1400) // $llx=0.0000 $lly=4.1400 $urx=0.0000 $ury=4.1400 $lvl=2
*|S (VDD!:10 2.4700 3.3550) // $llx=2.4700 $lly=3.3550 $urx=2.4700 $ury=3.3550 $lvl=2
*|S (VDD!:11 2.4700 2.9650) // $llx=2.4700 $lly=2.9650 $urx=2.4700 $ury=2.9650 $lvl=2
*|S (VDD!:12 3.4200 4.1400) // $llx=3.4200 $lly=4.1400 $urx=3.4200 $ury=4.1400 $lvl=2
*|S (VDD!:14 3.4200 3.3550) // $llx=3.4200 $lly=3.3550 $urx=3.4200 $ury=3.3550 $lvl=2
*|S (VDD!:15 3.4200 2.9650) // $llx=3.4200 $lly=2.9650 $urx=3.4200 $ury=2.9650 $lvl=2
*|S (VDD!:16 4.3400 4.1400) // $llx=4.3400 $lly=4.1400 $urx=4.3400 $ury=4.1400 $lvl=2
*|S (VDD!:18 4.3400 3.0150) // $llx=4.3400 $lly=3.0150 $urx=4.3400 $ury=3.0150 $lvl=2
*|S (VDD!:19 4.3400 2.2850) // $llx=4.3400 $lly=2.2850 $urx=4.3400 $ury=2.2850 $lvl=2
*|S (VDD!:20 5.0595 4.1400) // $llx=5.0595 $lly=4.1400 $urx=5.0595 $ury=4.1400 $lvl=2
*|S (VDD!:21 5.0600 4.1400) // $llx=5.0600 $lly=4.1400 $urx=5.0600 $ury=4.1400 $lvl=1
*|S (VDD!:22 2.5300 4.1400) // $llx=2.5300 $lly=4.1400 $urx=2.5300 $ury=4.1400 $lvl=1
*|S (VDD!:23 0.0000 4.1400) // $llx=0.0000 $lly=4.1400 $urx=0.0000 $ury=4.1400 $lvl=1
CE1 Mmp7:s VSS! 2.45982e-18 $lvl=4
CE2 Mmp1:s VSS! 2.58107e-18 $lvl=4
CE3 Mmp5:s VSS! 3.32287e-18 $lvl=4
CE4 Mmp8:s VSS! 2.47282e-18 $lvl=4
CE5 VDD!:22 VSS! 2.10026e-17 $lvl=1
CE6 VDD!:21 VSS! 7.59782e-18 $lvl=1
CE7 VDD!:23 VSS! 7.54924e-18 $lvl=1
CE8 VDD!:18 VSS! 7.91056e-18 $lvl=2
CE9 VDD!:3 VSS! 6.21151e-18 $lvl=2
CE10 VDD!:11 VSS! 4.72825e-18 $lvl=2
CE11 VDD!:15 VSS! 5.82186e-18 $lvl=2
CE12 VDD!:20 VSS! 2.66511e-18 $lvl=2
CE13 VDD!:16 VSS! 2.00149e-18 $lvl=2
CE14 VDD!:4 VSS! 3.72184e-18 $lvl=2
CE15 VDD!:8 VSS! 3.48048e-18 $lvl=2
CE16 VDD!:6 VSS! 2.39003e-18 $lvl=4
CE17 VDD!:5 VSS! 7.9355e-18 $lvl=2
CE18 VDD! VSS! 7.86083e-18 $lvl=1
CE19 VDD!:3 Mmp3:s 1.26759e-18 $lvl1=2 $lvl2=4
CE20 VDD! n3 1.18038e-18 $lvl1=1 $lvl2=2
CE21 VDD!:5 n3 5.29725e-19 $lvl1=2 $lvl2=2
CE22 VDD!:4 Mmp3:s 1.71586e-18 $lvl1=2 $lvl2=4
CE23 VDD!:4 n3 2.11341e-18 $lvl1=2 $lvl2=2
CE24 VDD!:3 n3 2.72046e-17 $lvl1=2 $lvl2=2
CE25 VDD!:3 n3:4 5.83406e-18 $lvl1=2 $lvl2=2
CE26 VDD! COb:10 8.75219e-18 $lvl1=1 $lvl2=3
CE27 VDD!:16 COb:8 8.71904e-18 $lvl1=2 $lvl2=3
CE28 VDD!:15 COb:22 7.81135e-18 $lvl1=2 $lvl2=2
CE29 VDD!:18 COb:23 7.58642e-18 $lvl1=2 $lvl2=2
CE30 VDD! COb:18 7.41478e-18 $lvl1=1 $lvl2=2
CE31 VDD! COb:31 6.53529e-18 $lvl1=1 $lvl2=1
CE32 VDD!:18 COb:10 6.3083e-18 $lvl1=2 $lvl2=3
CE33 VDD! COb:27 5.69848e-18 $lvl1=1 $lvl2=1
CE34 VDD!:22 COb:18 5.27094e-18 $lvl1=1 $lvl2=2
CE35 VDD! COb:23 4.97609e-18 $lvl1=1 $lvl2=2
CE36 VDD!:15 COb:33 4.64293e-18 $lvl1=2 $lvl2=1
CE37 VDD! COb:30 4.44866e-18 $lvl1=1 $lvl2=1
CE38 VDD!:15 COb:19 4.35322e-18 $lvl1=2 $lvl2=2
CE39 VDD!:21 COb:33 3.40594e-18 $lvl1=1 $lvl2=1
CE40 VDD!:18 COb:19 3.07629e-18 $lvl1=2 $lvl2=2
CE41 VDD!:5 COb:33 3.02462e-18 $lvl1=2 $lvl2=1
CE42 VDD! COb:29 2.94267e-18 $lvl1=1 $lvl2=1
CE43 VDD!:22 COb:19 2.49111e-18 $lvl1=1 $lvl2=2
CE44 VDD!:18 COb:26 2.32437e-18 $lvl1=2 $lvl2=2
CE45 VDD!:16 COb:33 1.71157e-18 $lvl1=2 $lvl2=1
CE46 VDD!:5 Mmp7:d 1.44958e-18 $lvl1=2 $lvl2=4
CE47 VDD! COb:25 1.38722e-18 $lvl1=1 $lvl2=2
CE48 Mmp8:s COb:10 1.33248e-18 $lvl1=4 $lvl2=3
CE49 VDD!:6 COb:18 1.1485e-18 $lvl1=4 $lvl2=2
CE50 VDD!:22 COb:31 1.13111e-18 $lvl1=1 $lvl2=1
CE51 VDD!:16 Mmp7:d 9.42956e-19 $lvl1=2 $lvl2=4
CE52 Mmp8:s COb:18 9.05088e-19 $lvl1=4 $lvl2=2
CE53 VDD!:18 COb:31 1.15469e-17 $lvl1=2 $lvl2=1
CE54 VDD!:22 COb:33 4.08205e-17 $lvl1=1 $lvl2=1
CE55 VDD!:18 COb:8 2.61206e-16 $lvl1=2 $lvl2=3
CE56 VDD!:18 COb:18 3.90946e-17 $lvl1=2 $lvl2=2
CE57 VDD! COb:33 1.0558e-17 $lvl1=1 $lvl2=1
CE58 VDD!:18 COb:33 2.13288e-17 $lvl1=2 $lvl2=1
CE59 VDD!:16 COb:18 1.08138e-17 $lvl1=2 $lvl2=2
CE60 VDD!:15 COb:18 4.60649e-17 $lvl1=2 $lvl2=2
CE61 VDD!:18 COb:25 1.24419e-17 $lvl1=2 $lvl2=2
CE62 VDD!:18 COb:22 1.02755e-17 $lvl1=2 $lvl2=2
CE63 VDD!:5 COb:18 1.71933e-17 $lvl1=2 $lvl2=2
CE64 VDD! n1:31 9.50823e-18 $lvl1=1 $lvl2=1
CE65 VDD!:15 n1:28 7.87034e-18 $lvl1=2 $lvl2=1
CE66 VDD! n1:18 7.86413e-18 $lvl1=1 $lvl2=2
CE67 VDD!:3 n1:10 7.27181e-18 $lvl1=2 $lvl2=3
CE68 VDD!:3 n1:20 6.7853e-18 $lvl1=2 $lvl2=2
CE69 VDD!:11 n1:28 6.74451e-18 $lvl1=2 $lvl2=1
CE70 VDD!:15 Mmp1:d 5.83736e-18 $lvl1=2 $lvl2=4
CE71 VDD!:15 n1:18 5.31095e-18 $lvl1=2 $lvl2=2
CE72 Mmp7:s n1:17 4.5534e-18 $lvl1=4 $lvl2=2
CE73 VDD! n1:20 3.98081e-18 $lvl1=1 $lvl2=2
CE74 VDD!:3 n1:8 2.98078e-18 $lvl1=2 $lvl2=3
CE75 VDD!:11 n1:20 1.9736e-18 $lvl1=2 $lvl2=2
CE76 VDD!:5 n1:8 1.97181e-18 $lvl1=2 $lvl2=3
CE77 VDD!:6 n1:17 1.91787e-18 $lvl1=4 $lvl2=2
CE78 VDD!:5 Mmp1:d 1.69014e-18 $lvl1=2 $lvl2=4
CE79 VDD!:5 n1:28 1.6403e-18 $lvl1=2 $lvl2=1
CE80 VDD!:22 n1:31 1.31007e-18 $lvl1=1 $lvl2=1
CE81 VDD!:5 n1:17 3.16474e-17 $lvl1=2 $lvl2=2
CE82 VDD!:22 n1:17 9.94923e-18 $lvl1=1 $lvl2=2
CE83 VDD! n1:17 1.25724e-17 $lvl1=1 $lvl2=2
CE84 VDD!:11 n1:18 1.93775e-17 $lvl1=2 $lvl2=2
CE85 VDD!:22 n1:28 1.74656e-17 $lvl1=1 $lvl2=1
CE86 VDD!:11 n1:17 5.30175e-17 $lvl1=2 $lvl2=2
CE87 VDD! n1:10 1.23673e-17 $lvl1=1 $lvl2=3
CE88 VDD!:4 n1:8 9.80929e-18 $lvl1=2 $lvl2=3
CE89 VDD! n1:28 1.26987e-17 $lvl1=1 $lvl2=1
CE90 VDD!:15 n1:17 5.30733e-17 $lvl1=2 $lvl2=2
CE91 VDD! n0:25 9.72508e-18 $lvl1=1 $lvl2=1
CE92 VDD!:4 Mmp2:g 8.84357e-18 $lvl1=2 $lvl2=3
CE93 VDD!:11 n0:17 7.74634e-18 $lvl1=2 $lvl2=2
CE94 VDD!:4 n0:25 7.49222e-18 $lvl1=2 $lvl2=1
CE95 VDD! n0:14 6.44254e-18 $lvl1=1 $lvl2=2
CE96 VDD!:22 n0:27 6.35332e-18 $lvl1=1 $lvl2=1
CE97 VDD! n0:9 6.16945e-18 $lvl1=1 $lvl2=3
CE98 VDD!:5 n0:25 6.13041e-18 $lvl1=2 $lvl2=1
CE99 VDD!:11 n0:27 5.85672e-18 $lvl1=2 $lvl2=1
CE100 VDD!:23 n0:25 5.63689e-18 $lvl1=1 $lvl2=1
CE101 VDD!:11 n0:26 5.46799e-18 $lvl1=2 $lvl2=1
CE102 VDD! n0:27 5.43758e-18 $lvl1=1 $lvl2=1
CE103 VDD! n0:24 4.91522e-18 $lvl1=1 $lvl2=1
CE104 VDD! n0:28 4.75754e-18 $lvl1=1 $lvl2=1
CE105 VDD! n0:29 4.7512e-18 $lvl1=1 $lvl2=1
CE106 VDD! n0:26 4.29045e-18 $lvl1=1 $lvl2=1
CE107 VDD! n0:31 4.18704e-18 $lvl1=1 $lvl2=1
CE108 VDD! n0:30 3.35077e-18 $lvl1=1 $lvl2=1
CE109 VDD! n0:23 2.90378e-18 $lvl1=1 $lvl2=1
CE110 VDD!:22 n0:14 2.4457e-18 $lvl1=1 $lvl2=2
CE111 Mmp5:s n0:9 1.97002e-18 $lvl1=4 $lvl2=3
CE112 VDD!:22 n0:28 1.53901e-18 $lvl1=1 $lvl2=1
CE113 VDD!:4 n0:26 1.51272e-18 $lvl1=2 $lvl2=1
CE114 VDD!:6 n0:14 1.34525e-18 $lvl1=4 $lvl2=2
CE115 VDD!:4 n0:14 1.29225e-18 $lvl1=2 $lvl2=2
CE116 VDD!:5 Mmp4:s 1.27964e-18 $lvl1=2 $lvl2=4
CE117 VDD!:5 n0:26 1.08147e-17 $lvl1=2 $lvl2=1
CE118 VDD!:3 Mmp2:g 7.65725e-17 $lvl1=2 $lvl2=3
CE119 VDD!:3 n0:9 1.01079e-17 $lvl1=2 $lvl2=3
CE120 VDD!:3 n0:12 1.07793e-17 $lvl1=2 $lvl2=2
CE121 VDD!:5 n0:14 2.34246e-17 $lvl1=2 $lvl2=2
CE122 VDD!:22 n0:25 1.0436e-16 $lvl1=1 $lvl2=1
CE123 VDD!:3 n0:24 1.56561e-17 $lvl1=2 $lvl2=1
CE124 VDD!:22 n0:26 1.11903e-16 $lvl1=1 $lvl2=1
CE125 VDD!:3 n0:25 2.75223e-17 $lvl1=2 $lvl2=1
CE126 VDD!:11 n0:14 4.91572e-17 $lvl1=2 $lvl2=2
CE127 VDD!:22 Sb:30 8.06205e-18 $lvl1=1 $lvl2=1
CE128 VDD! Sb:13 7.97551e-18 $lvl1=1 $lvl2=2
CE129 VDD! Sb:28 7.45811e-18 $lvl1=1 $lvl2=1
CE130 VDD! Sb:27 7.3249e-18 $lvl1=1 $lvl2=1
CE131 VDD! Sb:10 7.13436e-18 $lvl1=1 $lvl2=3
CE132 VDD! Sb:30 7.09628e-18 $lvl1=1 $lvl2=1
CE133 VDD!:4 Sb:8 6.67258e-18 $lvl1=2 $lvl2=3
CE134 VDD!:3 Sb:30 5.39915e-18 $lvl1=2 $lvl2=1
CE135 VDD! Sb:26 5.20001e-18 $lvl1=1 $lvl2=2
CE136 VDD!:22 Sb:13 2.11758e-18 $lvl1=1 $lvl2=2
CE137 VDD!:3 Sb:10 1.82774e-18 $lvl1=2 $lvl2=3
CE138 VDD!:3 Sb:13 1.81847e-18 $lvl1=2 $lvl2=2
CE139 VDD!:3 Sb:26 1.75604e-18 $lvl1=2 $lvl2=2
CE140 VDD!:3 Sb:28 1.31778e-18 $lvl1=2 $lvl2=1
CE141 VDD! Sb:24 1.07659e-18 $lvl1=1 $lvl2=2
CE142 VDD!:3 Sb:8 2.52994e-16 $lvl1=2 $lvl2=3
CE143 VDD!:4 Sb:13 1.36736e-17 $lvl1=2 $lvl2=2
CE144 VDD!:5 Sb:13 1.38155e-17 $lvl1=2 $lvl2=2
CE145 VDD! VSS!:9 3.65668e-17 $lvl1=1 $lvl2=2
CE146 VDD! VSS!:10 1.58641e-17 $lvl1=1 $lvl2=2
CE147 VDD! VSS!:5 1.00993e-16 $lvl1=1 $lvl2=2
CE148 VDD! VSS!:18 1.35714e-16 $lvl1=1 $lvl2=1
CE149 VDD! VSS!:17 3.13802e-17 $lvl1=1 $lvl2=1
CE150 VDD! VSS!:19 3.34245e-17 $lvl1=1 $lvl2=1
CE151 VDD! VSS!:8 1.70435e-17 $lvl1=1 $lvl2=2
ReE89 VDD!:21 VDD!:22 0.790625 $metal1  $L=2.53 $W=0.400000 $SI_W=0.4 $TYPE=10 $DIR=0 $LLX=2.530000 $LLY=3.940000 $URX=5.060000 $URY=4.340000 $lvl=1
ReE90 VDD!:22 VDD! 0.035937 $metal1  $L=0.115 $W=0.400000 $SI_W=0.4 $TYPE=10 $DIR=0 $LLX=2.415000 $LLY=3.940000 $URX=2.530000 $URY=4.340000 $lvl=1
ReE91 VDD! VDD!:23 0.754687 $metal1  $L=2.415 $W=0.400000 $SI_W=0.4 $TYPE=10 $DIR=0 $LLX=0.000000 $LLY=3.940000 $URX=2.415000 $URY=4.340000 $lvl=1
RfE92 VDD!:1 VDD!:3 54.964703 $li  $L=0.73 $W=0.170000 $SI_W=0.17 $TYPE=10 $DIR=1 $LLX=0.605000 $LLY=2.285000 $URX=0.775000 $URY=3.015000 $lvl=2
RfE93 VDD!:3 VDD!:4 81.706917 $li  $L=1.12525 $W=0.170000 $SI_W=0.17 $TYPE=10 $DIR=1 $LLX=0.605000 $LLY=3.015000 $URX=0.775000 $URY=4.140000 $lvl=2
RfE94 VDD!:4 VDD!:5 94.195198 $li  $L=1.83975 $W=0.250000 $SI_W=0.25 $TYPE=10 $DIR=0 $LLX=0.690000 $LLY=4.015000 $URX=2.530000 $URY=4.265000 $lvl=2
RfE95 VDD!:4 VDD!:8 35.340801 $li  $L=0.69025 $W=0.250000 $SI_W=0.25 $TYPE=10 $DIR=0 $LLX=0.000000 $LLY=4.015000 $URX=0.690000 $URY=4.265000 $lvl=2
RfE96 VDD!:5 VDD!:10 56.094116 $li  $L=0.785 $W=0.170000 $SI_W=0.17 $TYPE=10 $DIR=1 $LLX=2.385000 $LLY=3.355000 $URX=2.555000 $URY=4.140000 $lvl=2
RfE97 VDD!:10 VDD!:11 29.364706 $li  $L=0.39 $W=0.170000 $SI_W=0.17 $TYPE=10 $DIR=1 $LLX=2.385000 $LLY=2.965000 $URX=2.555000 $URY=3.355000 $lvl=2
RfE98 VDD!:5 VDD!:12 45.580803 $li  $L=0.89025 $W=0.250000 $SI_W=0.25 $TYPE=10 $DIR=0 $LLX=2.530000 $LLY=4.015000 $URX=3.420000 $URY=4.265000 $lvl=2
RfE99 VDD!:12 VDD!:14 56.106915 $li  $L=0.78525 $W=0.170000 $SI_W=0.17 $TYPE=10 $DIR=1 $LLX=3.335000 $LLY=3.355000 $URX=3.505000 $URY=4.140000 $lvl=2
RfE100 VDD!:14 VDD!:15 29.364706 $li  $L=0.39 $W=0.170000 $SI_W=0.17 $TYPE=10 $DIR=1 $LLX=3.335000 $LLY=2.965000 $URX=3.505000 $URY=3.355000 $lvl=2
RfE101 VDD!:12 VDD!:16 47.104000 $li  $L=0.92 $W=0.250000 $SI_W=0.25 $TYPE=10 $DIR=0 $LLX=3.420000 $LLY=4.015000 $URX=4.340000 $URY=4.265000 $lvl=2
RfE102 VDD!:16 VDD!:18 81.706917 $li  $L=1.12525 $W=0.170000 $SI_W=0.17 $TYPE=10 $DIR=1 $LLX=4.255000 $LLY=3.015000 $URX=4.425000 $URY=4.140000 $lvl=2
RfE103 VDD!:18 VDD!:19 54.964703 $li  $L=0.73 $W=0.170000 $SI_W=0.17 $TYPE=10 $DIR=1 $LLX=4.255000 $LLY=2.285000 $URX=4.425000 $URY=3.015000 $lvl=2
RfE104 VDD!:16 VDD!:20 36.825600 $li  $L=0.71925 $W=0.250000 $SI_W=0.25 $TYPE=10 $DIR=0 $LLX=4.340000 $LLY=4.015000 $URX=5.059000 $URY=4.265000 $lvl=2
Rh_1_E105 VDD!:6 VDD!:5 1.500000 $licon_diff  $A=0.289 $VC=0 $SAVL=0 $SAVC=0 $SI_A=0.289 $COVER_DIR=0 $LLX=0.000000 $LLY=0.000000 $URX=-0.289000 $URY=-10.000000 $lvl=5
Rh_2_E106 Mmp5:s VDD!:3 3.750000 $licon_diff  $A=0.1156 $VC=0 $SAVL=0 $SAVC=0 $SI_A=0.1156 $COVER_DIR=0 $LLX=0.000000 $LLY=0.000000 $URX=-0.115600 $URY=-4.000000 $lvl=5
Rh_2_E107 Mmp1:s VDD!:10 7.500000 $licon_diff  $A=0.0578 $VC=0 $SAVL=0 $SAVC=0 $SI_A=0.0578 $COVER_DIR=0 $LLX=0.000000 $LLY=0.000000 $URX=-0.057800 $URY=-2.000000 $lvl=5
Rh_2_E108 Mmp7:s VDD!:14 7.500000 $licon_diff  $A=0.0578 $VC=0 $SAVL=0 $SAVC=0 $SI_A=0.0578 $COVER_DIR=0 $LLX=0.000000 $LLY=0.000000 $URX=-0.057800 $URY=-2.000000 $lvl=5
Rh_2_E109 Mmp8:s VDD!:18 3.750000 $licon_diff  $A=0.1156 $VC=0 $SAVL=0 $SAVC=0 $SI_A=0.1156 $COVER_DIR=0 $LLX=0.000000 $LLY=0.000000 $URX=-0.115600 $URY=-4.000000 $lvl=5
RjE110 VDD!:5 VDD!:22 15.200000 $mcon  $A=0.289 $VC=0 $SAVL=0 $SAVC=0 $SI_A=0.289 $COVER_DIR=0 $LLX=0.000000 $LLY=0.000000 $URX=-0.289000 $URY=-10.000000 $lvl=6
RmwE111 Mmp8:b VDD! 0.001000 $FOX $W=1000000 $SI_W=1000000 $TYPE=1 $DIR=0
RmwE112 Mmp5:b VDD! 0.001000 $FOX $W=1000000 $SI_W=1000000 $TYPE=1 $DIR=0
RmwE113 Mmp3:b VDD! 0.001000 $FOX $W=1000000 $SI_W=1000000 $TYPE=1 $DIR=0
RmwE114 Mmp4:b VDD! 0.001000 $FOX $W=1000000 $SI_W=1000000 $TYPE=1 $DIR=0
RmwE115 Mmp1:b VDD! 0.001000 $FOX $W=1000000 $SI_W=1000000 $TYPE=1 $DIR=0
RmwE116 Mmp7:b VDD! 0.001000 $FOX $W=1000000 $SI_W=1000000 $TYPE=1 $DIR=0
RmwE117 Mmp2:s Mmp5:s 0.001000 $diff $W=1000000 $SI_W=1000000 $TYPE=1 $DIR=0
RmwE118 Mmp2:b VDD! 0.001000 $FOX $W=1000000 $SI_W=1000000 $TYPE=1 $DIR=0
RmwE119 Mmp0:s Mmp1:s 0.001000 $diff $W=1000000 $SI_W=1000000 $TYPE=1 $DIR=0
RmwE120 Mmp0:b VDD! 0.001000 $FOX $W=1000000 $SI_W=1000000 $TYPE=1 $DIR=0
RmwE121 Mmp6:s Mmp8:s 0.001000 $diff $W=1000000 $SI_W=1000000 $TYPE=1 $DIR=0
RmwE122 Mmp6:b VDD! 0.001000 $FOX $W=1000000 $SI_W=1000000 $TYPE=1 $DIR=0
*
*|NET CO 1.25429e-15
*|P (CO X 0 4.6150 1.9250) // $llx=4.6150 $lly=1.9250 $urx=4.6150 $ury=1.9250 $lvl=1
*|I (Mmp8:d Mmp8 d X 0 4.6305 3.0150) // $llx=4.6305 $lly=3.0150 $urx=4.6305 $ury=3.0150 $lvl=4
*|I (Mmn8:d Mmn8 d X 0 4.6305 0.7750) // $llx=4.6305 $lly=0.7750 $urx=4.6305 $ury=0.7750 $lvl=4
*|S (CO:1 4.7700 3.7450) // $llx=4.7700 $lly=3.7450 $urx=4.7700 $ury=3.7450 $lvl=2
*|S (CO:3 4.7700 3.0150) // $llx=4.7700 $lly=3.0150 $urx=4.7700 $ury=3.0150 $lvl=2
*|S (CO:4 4.7700 2.7650) // $llx=4.7700 $lly=2.7650 $urx=4.7700 $ury=2.7650 $lvl=2
*|S (CO:5 4.7700 2.2850) // $llx=4.7700 $lly=2.2850 $urx=4.7700 $ury=2.2850 $lvl=2
*|S (CO:6 4.7700 1.1550) // $llx=4.7700 $lly=1.1550 $urx=4.7700 $ury=1.1550 $lvl=2
*|S (CO:7 4.7700 0.8100) // $llx=4.7700 $lly=0.8100 $urx=4.7700 $ury=0.8100 $lvl=2
*|S (CO:9 4.7700 0.7750) // $llx=4.7700 $lly=0.7750 $urx=4.7700 $ury=0.7750 $lvl=2
*|S (CO:10 4.7700 0.3950) // $llx=4.7700 $lly=0.3950 $urx=4.7700 $ury=0.3950 $lvl=2
*|S (CO:11 4.6775 0.6800) // $llx=4.6775 $lly=0.6800 $urx=4.6775 $ury=0.6800 $lvl=1
*|S (CO:12 4.7700 0.8100) // $llx=4.7700 $lly=0.8100 $urx=4.7700 $ury=0.8100 $lvl=1
*|S (CO:13 4.6775 1.1350) // $llx=4.6775 $lly=1.1350 $urx=4.6775 $ury=1.1350 $lvl=1
*|S (CO:14 4.7700 0.4850) // $llx=4.7700 $lly=0.4850 $urx=4.7700 $ury=0.4850 $lvl=1
*|S (CO:15 4.6775 2.4400) // $llx=4.6775 $lly=2.4400 $urx=4.6775 $ury=2.4400 $lvl=1
*|S (CO:16 4.7700 2.7650) // $llx=4.7700 $lly=2.7650 $urx=4.7700 $ury=2.7650 $lvl=1
*|S (CO:17 4.6775 3.0900) // $llx=4.6775 $lly=3.0900 $urx=4.6775 $ury=3.0900 $lvl=1
CC1 Mmn8:d VSS! 1.2641e-18 $lvl=4
CC2 Mmp8:d VSS! 1.63991e-18 $lvl=4
CC3 CO:15 VSS! 1.21062e-17 $lvl=1
CC4 CO:12 VSS! 7.77164e-18 $lvl=1
CC5 CO:13 VSS! 8.35995e-18 $lvl=1
CC6 CO:14 VSS! 2.91421e-18 $lvl=1
CC7 CO:6 VSS! 1.55842e-17 $lvl=2
CC8 CO:10 VSS! 9.81923e-19 $lvl=2
CC9 CO:1 VSS! 5.28371e-18 $lvl=2
CC10 CO:5 VSS! 1.81938e-18 $lvl=2
CC11 CO:7 VSS! 1.81383e-18 $lvl=2
CC12 CO:4 VSS! 1.48467e-18 $lvl=2
CC13 CO VSS! 7.62909e-18 $lvl=1
CC14 CO:12 COb:30 6.11632e-18 $lvl1=1 $lvl2=1
CC15 CO:1 COb:10 5.98218e-18 $lvl1=2 $lvl2=3
CC16 CO:15 COb:23 4.04119e-18 $lvl1=1 $lvl2=2
CC17 CO:1 COb:33 3.75215e-18 $lvl1=2 $lvl2=1
CC18 CO:5 COb:10 3.629e-18 $lvl1=2 $lvl2=3
CC19 CO:13 COb:31 2.71523e-18 $lvl1=1 $lvl2=1
CC20 CO:1 COb:23 2.69004e-18 $lvl1=2 $lvl2=2
CC21 CO COb:25 2.58121e-18 $lvl1=1 $lvl2=2
CC22 CO COb:26 2.56303e-18 $lvl1=1 $lvl2=2
CC23 CO:13 COb:23 2.53679e-18 $lvl1=1 $lvl2=2
CC24 CO:6 COb:10 2.52023e-18 $lvl1=2 $lvl2=3
CC25 CO:6 COb:23 2.28267e-18 $lvl1=2 $lvl2=2
CC26 CO:12 COb:27 2.22418e-18 $lvl1=1 $lvl2=1
CC27 CO COb:10 2.16003e-18 $lvl1=1 $lvl2=3
CC28 Mmp8:d COb:10 1.80838e-18 $lvl1=4 $lvl2=3
CC29 CO:13 COb:27 1.34305e-18 $lvl1=1 $lvl2=1
CC30 CO:12 COb:29 1.22691e-18 $lvl1=1 $lvl2=1
CC31 CO:13 COb:29 1.04789e-18 $lvl1=1 $lvl2=1
CC32 CO:13 COb:10 9.36544e-19 $lvl1=1 $lvl2=3
CC33 CO COb:33 9.18847e-19 $lvl1=1 $lvl2=1
CC34 CO:4 COb:23 9.13704e-19 $lvl1=2 $lvl2=2
CC35 CO:15 COb:30 9.06986e-19 $lvl1=1 $lvl2=1
CC36 CO:15 COb:10 8.71982e-19 $lvl1=1 $lvl2=3
CC37 CO:15 COb:26 7.85884e-19 $lvl1=1 $lvl2=2
CC38 CO:5 COb:8 7.23302e-19 $lvl1=2 $lvl2=3
CC39 CO COb:29 6.68721e-19 $lvl1=1 $lvl2=1
CC40 CO:14 COb:30 6.54435e-19 $lvl1=1 $lvl2=1
CC41 CO:6 COb:30 6.32782e-19 $lvl1=2 $lvl2=1
CC42 Mmn8:d COb:10 6.09296e-19 $lvl1=4 $lvl2=3
CC43 CO:12 COb:31 5.8264e-19 $lvl1=1 $lvl2=1
CC44 CO:4 COb:33 5.60614e-19 $lvl1=2 $lvl2=1
CC45 CO:13 COb:25 5.60125e-19 $lvl1=1 $lvl2=2
CC46 CO:15 COb:25 5.59848e-19 $lvl1=1 $lvl2=2
CC47 CO:14 COb:27 5.47933e-19 $lvl1=1 $lvl2=1
CC48 CO:10 COb 5.45469e-19 $lvl1=2 $lvl2=3
CC49 CO:1 COb:31 4.85413e-19 $lvl1=2 $lvl2=1
CC50 CO:15 COb:27 3.81593e-19 $lvl1=1 $lvl2=1
CC51 CO:15 COb:29 3.8083e-19 $lvl1=1 $lvl2=1
CC52 CO:15 COb:18 3.79457e-19 $lvl1=1 $lvl2=2
CC53 CO COb:27 3.74024e-19 $lvl1=1 $lvl2=1
CC54 CO:15 COb:22 3.68255e-19 $lvl1=1 $lvl2=2
CC55 Mmp8:d COb:23 3.53868e-19 $lvl1=4 $lvl2=2
CC56 CO:1 COb:18 3.37665e-19 $lvl1=2 $lvl2=2
CC57 CO COb 3.36631e-19 $lvl1=1 $lvl2=3
CC58 CO:4 COb:31 3.32312e-19 $lvl1=2 $lvl2=1
CC59 CO:5 COb:25 3.26829e-19 $lvl1=2 $lvl2=2
CC60 CO:13 COb:33 3.14745e-19 $lvl1=1 $lvl2=1
CC61 CO:14 COb:29 3.03043e-19 $lvl1=1 $lvl2=1
CC62 CO:6 COb:25 2.97928e-19 $lvl1=2 $lvl2=2
CC63 CO:1 COb:25 2.94848e-19 $lvl1=2 $lvl2=2
CC64 CO:13 COb 2.9413e-19 $lvl1=1 $lvl2=3
CC65 CO COb:31 3.07263e-17 $lvl1=1 $lvl2=1
CC66 CO COb:30 1.29671e-17 $lvl1=1 $lvl2=1
CC67 CO:15 COb:31 3.22516e-17 $lvl1=1 $lvl2=1
CC68 CO COb:23 1.58578e-17 $lvl1=1 $lvl2=2
CC69 CO:15 COb:33 4.23915e-17 $lvl1=1 $lvl2=1
CC70 CO:5 COb:23 8.9467e-18 $lvl1=2 $lvl2=2
CC71 CO:13 COb:30 2.33564e-17 $lvl1=1 $lvl2=1
CC72 CO:1 COb:8 2.55255e-16 $lvl1=2 $lvl2=3
CC73 CO:6 COb 1.27943e-16 $lvl1=2 $lvl2=3
CC74 CO:10 VSS!:3 5.13447e-18 $lvl1=2 $lvl2=2
CC75 CO:6 VSS!:8 4.58143e-18 $lvl1=2 $lvl2=2
CC76 CO:7 VSS!:3 3.95717e-18 $lvl1=2 $lvl2=2
CC77 CO:13 VSS!:18 3.4985e-18 $lvl1=1 $lvl2=1
CC78 CO:12 VSS!:17 3.43878e-18 $lvl1=1 $lvl2=1
CC79 CO:6 VSS!:6 2.56117e-18 $lvl1=2 $lvl2=4
CC80 CO:6 VSS!:17 2.43347e-18 $lvl1=2 $lvl2=1
CC81 CO:14 VSS!:5 2.34015e-18 $lvl1=1 $lvl2=2
CC82 CO:14 VSS!:3 2.17434e-18 $lvl1=1 $lvl2=2
CC83 CO:7 VSS!:5 2.06607e-18 $lvl1=2 $lvl2=2
CC84 CO:14 VSS!:8 1.6557e-18 $lvl1=1 $lvl2=2
CC85 CO:10 VSS!:17 1.55373e-18 $lvl1=2 $lvl2=1
CC86 Mmn8:d VSS!:5 1.53445e-18 $lvl1=4 $lvl2=2
CC87 CO:7 VSS!:8 1.50335e-18 $lvl1=2 $lvl2=2
CC88 CO:12 VSS!:5 1.49328e-18 $lvl1=1 $lvl2=2
CC89 CO:13 VSS!:17 1.49157e-18 $lvl1=1 $lvl2=1
CC90 CO:7 VSS!:17 1.40255e-18 $lvl1=2 $lvl2=1
CC91 CO:15 VSS!:18 1.3842e-18 $lvl1=1 $lvl2=1
CC92 CO VSS!:18 1.26984e-18 $lvl1=1 $lvl2=1
CC93 CO:10 VSS!:18 1.26215e-18 $lvl1=2 $lvl2=1
CC94 CO:7 VSS!:18 1.15048e-18 $lvl1=2 $lvl2=1
CC95 Mmn8:d VSS!:3 1.12788e-18 $lvl1=4 $lvl2=2
CC96 CO:6 VSS!:18 1.02184e-18 $lvl1=2 $lvl2=1
CC97 CO VSS!:3 1.01298e-18 $lvl1=1 $lvl2=2
CC98 CO VSS!:17 8.58866e-19 $lvl1=1 $lvl2=1
CC99 CO:6 VSS!:3 5.07876e-17 $lvl1=2 $lvl2=2
CC100 CO:12 VSS!:18 1.19121e-17 $lvl1=1 $lvl2=1
CC101 CO:14 VSS!:18 1.82761e-17 $lvl1=1 $lvl2=1
CC102 CO:10 VSS!:5 8.74767e-18 $lvl1=2 $lvl2=2
CC103 CO:14 VSS!:17 1.57895e-17 $lvl1=1 $lvl2=1
CC104 CO:12 VSS!:3 9.22176e-18 $lvl1=1 $lvl2=2
CC105 CO:6 VSS!:5 6.64544e-18 $lvl1=2 $lvl2=2
CC106 CO:13 VSS!:3 6.8406e-18 $lvl1=1 $lvl2=2
CC107 CO:10 VSS!:8 6.42976e-18 $lvl1=2 $lvl2=2
CC108 CO:1 VDD!:22 5.75813e-18 $lvl1=2 $lvl2=1
CC109 CO:5 VDD!:18 5.49349e-18 $lvl1=2 $lvl2=2
CC110 CO:4 VDD!:18 3.9905e-18 $lvl1=2 $lvl2=2
CC111 CO:1 VDD!:6 3.00233e-18 $lvl1=2 $lvl2=4
CC112 CO:5 VDD! 2.86118e-18 $lvl1=2 $lvl2=1
CC113 CO:1 VDD!:5 2.01242e-18 $lvl1=2 $lvl2=2
CC114 CO:7 VDD! 1.91351e-18 $lvl1=2 $lvl2=1
CC115 CO:10 VDD! 1.88845e-18 $lvl1=2 $lvl2=1
CC116 CO VDD!:18 1.81093e-18 $lvl1=1 $lvl2=2
CC117 Mmp8:d VDD!:16 1.67651e-18 $lvl1=4 $lvl2=2
CC118 CO:4 VDD! 1.65673e-18 $lvl1=2 $lvl2=1
CC119 CO:1 Mmp8:s 1.59339e-18 $lvl1=2 $lvl2=4
CC120 CO:15 VDD!:20 1.36917e-18 $lvl1=1 $lvl2=2
CC121 CO VDD!:22 1.17456e-18 $lvl1=1 $lvl2=1
CC122 Mmp8:d VDD!:18 7.66771e-19 $lvl1=4 $lvl2=2
CC123 CO:15 VDD!:5 5.64073e-19 $lvl1=1 $lvl2=2
CC124 CO:15 VDD!:16 5.41879e-19 $lvl1=1 $lvl2=2
CC125 CO:12 VDD!:22 5.41322e-19 $lvl1=1 $lvl2=1
CC126 CO:1 VDD!:20 1.34599e-17 $lvl1=2 $lvl2=2
CC127 CO:14 VDD! 8.08835e-18 $lvl1=1 $lvl2=1
CC128 CO:1 VDD!:21 8.58538e-18 $lvl1=2 $lvl2=1
CC129 CO:1 VDD!:16 1.37203e-17 $lvl1=2 $lvl2=2
CC130 CO:6 VDD! 1.97538e-17 $lvl1=2 $lvl2=1
CC131 CO:1 VDD! 6.13304e-17 $lvl1=2 $lvl2=1
CC132 CO:15 VDD!:22 9.63348e-18 $lvl1=1 $lvl2=1
CC133 CO:15 VDD!:21 6.85712e-18 $lvl1=1 $lvl2=1
CC134 CO:15 VDD!:18 2.0971e-17 $lvl1=1 $lvl2=2
CC135 CO VDD! 1.57935e-17 $lvl1=1 $lvl2=1
CC136 CO:15 VDD! 3.32463e-17 $lvl1=1 $lvl2=1
CC137 CO:12 VDD! 1.18045e-17 $lvl1=1 $lvl2=1
CC138 CO:1 VDD!:18 9.88959e-17 $lvl1=2 $lvl2=2
CC139 CO:13 VDD! 1.35854e-17 $lvl1=1 $lvl2=1
ReC55 CO:11 CO:12 0.039157 $metal1  $L=0.13 $W=0.415000 $SI_W=0.415 $TYPE=10 $DIR=1 $LLX=4.470000 $LLY=0.680000 $URX=4.885000 $URY=0.810000 $lvl=1
ReC56 CO:12 CO:13 0.097892 $metal1  $L=0.325 $W=0.415000 $SI_W=0.415 $TYPE=10 $DIR=1 $LLX=4.470000 $LLY=0.810000 $URX=4.885000 $URY=1.135000 $lvl=1
ReC57 CO:13 CO 0.379808 $metal1  $L=0.79 $W=0.260000 $SI_W=0.26 $TYPE=10 $DIR=1 $LLX=4.470000 $LLY=1.135000 $URX=4.730000 $URY=1.925000 $lvl=1
ReC58 CO:11 CO:14 0.105978 $metal1  $L=0.195 $W=0.230000 $SI_W=0.23 $TYPE=10 $DIR=1 $LLX=4.654500 $LLY=0.485000 $URX=4.884500 $URY=0.680000 $lvl=1
ReC59 CO CO:15 0.247671 $metal1  $L=0.515 $W=0.260000 $SI_W=0.26 $TYPE=10 $DIR=1 $LLX=4.470000 $LLY=1.925000 $URX=4.730000 $URY=2.440000 $lvl=1
ReC60 CO:15 CO:16 0.115162 $metal1  $L=0.3245 $W=0.415000 $SI_W=0.415 $TYPE=10 $DIR=1 $LLX=4.470000 $LLY=2.440000 $URX=4.885000 $URY=2.765000 $lvl=1
ReC61 CO:16 CO:17 0.097892 $metal1  $L=0.325 $W=0.415000 $SI_W=0.415 $TYPE=10 $DIR=1 $LLX=4.562500 $LLY=2.765000 $URX=4.977500 $URY=3.090000 $lvl=1
RfC62 CO:1 CO:3 54.964703 $li  $L=0.73 $W=0.170000 $SI_W=0.17 $TYPE=10 $DIR=1 $LLX=4.685000 $LLY=3.015000 $URX=4.855000 $URY=3.745000 $lvl=2
RfC63 CO:3 CO:4 6.037736 $li  $L=0.25 $W=0.170000 $SI_W=0.53 $TYPE=10 $DIR=1 $LLX=4.685000 $LLY=2.765000 $URX=4.855000 $URY=3.015000 $lvl=2
RfC64 CO:4 CO:5 36.141178 $li  $L=0.48 $W=0.170000 $SI_W=0.17 $TYPE=10 $DIR=1 $LLX=4.685000 $LLY=2.285000 $URX=4.855000 $URY=2.765000 $lvl=2
RfC65 CO:6 CO:7 25.976471 $li  $L=0.345 $W=0.170000 $SI_W=0.17 $TYPE=10 $DIR=1 $LLX=4.685000 $LLY=0.810000 $URX=4.855000 $URY=1.155000 $lvl=2
RfC66 CO:7 CO:9 0.923711 $li  $L=0.035 $W=0.170000 $SI_W=0.485 $TYPE=10 $DIR=1 $LLX=4.685000 $LLY=0.775000 $URX=4.855000 $URY=0.810000 $lvl=2
RfC67 CO:9 CO:10 28.611765 $li  $L=0.38 $W=0.170000 $SI_W=0.17 $TYPE=10 $DIR=1 $LLX=4.685000 $LLY=0.395000 $URX=4.855000 $URY=0.775000 $lvl=2
RhC68 Mmn8:d CO:9 7.500000 $licon_diff  $A=0.0578 $VC=0 $SAVL=0 $SAVC=0 $SI_A=0.0578 $COVER_DIR=0 $LLX=0.000000 $LLY=0.000000 $URX=-0.057800 $URY=-2.000000 $lvl=5
Rh_2_C69 Mmp8:d CO:3 3.750000 $licon_diff  $A=0.1156 $VC=0 $SAVL=0 $SAVC=0 $SI_A=0.1156 $COVER_DIR=0 $LLX=0.000000 $LLY=0.000000 $URX=-0.115600 $URY=-4.000000 $lvl=5
RjC70 CO:7 CO:12 76.000000 $mcon  $A=0.0578 $VC=0 $SAVL=0 $SAVC=0 $SI_A=0.0578 $COVER_DIR=0 $LLX=0.000000 $LLY=0.000000 $URX=-0.057800 $URY=-2.000000 $lvl=6
RjC71 CO:4 CO:16 76.000000 $mcon  $A=0.0578 $VC=0 $SAVL=0 $SAVC=0 $SI_A=0.0578 $COVER_DIR=0 $LLX=0.000000 $LLY=0.000000 $URX=-0.057800 $URY=-2.000000 $lvl=6
*
*|NET n0 2.71127e-15
*|I (Mmp4:s Mmp4 s X 0 1.9005 3.3550) // $llx=1.9005 $lly=3.3550 $urx=1.9005 $ury=3.3550 $lvl=4
*|I (Mmp2:g Mmp2 g X 0 0.9650 3.3550) // $llx=0.9650 $lly=3.3550 $urx=0.9650 $ury=3.3550 $lvl=3
*|I (Mmp0:d Mmp0 d X 0 2.1795 3.3550) // $llx=2.1795 $lly=3.3550 $urx=2.1795 $ury=3.3550 $lvl=4
*|I (Mmn0:d Mmn0 d X 0 2.1795 0.6075) // $llx=2.1795 $lly=0.6075 $urx=2.1795 $ury=0.6075 $lvl=4
*|I (Mmn2:g Mmn2 g X 0 0.9650 0.6075) // $llx=0.9650 $lly=0.6075 $urx=0.9650 $ury=0.6075 $lvl=3
*|I (Mmn4:s Mmn4 s X 0 1.9005 0.6075) // $llx=1.9005 $lly=0.6075 $urx=1.9005 $ury=0.6075 $lvl=4
*|S (n0 0.9650 0.6075) // $llx=0.9650 $lly=0.6075 $urx=0.9650 $ury=0.6075 $lvl=3
*|S (n0:8 0.9650 3.8950) // $llx=0.9650 $lly=3.8950 $urx=0.9650 $ury=3.8950 $lvl=3
*|S (n0:9 0.9650 1.9500) // $llx=0.9650 $lly=1.9500 $urx=0.9650 $ury=1.9500 $lvl=3
*|S (n0:10 0.9650 1.7850) // $llx=0.9650 $lly=1.7850 $urx=0.9650 $ury=1.7850 $lvl=3
*|S (n0:11 0.9650 0.2450) // $llx=0.9650 $lly=0.2450 $urx=0.9650 $ury=0.2450 $lvl=3
*|S (n0:12 0.9650 1.9500) // $llx=0.9650 $lly=1.9500 $urx=0.9650 $ury=1.9500 $lvl=2
*|S (n0:14 2.0400 3.7450) // $llx=2.0400 $lly=3.7450 $urx=2.0400 $ury=3.7450 $lvl=2
*|S (n0:16 2.0400 3.3550) // $llx=2.0400 $lly=3.3550 $urx=2.0400 $ury=3.3550 $lvl=2
*|S (n0:17 2.0400 3.0900) // $llx=2.0400 $lly=3.0900 $urx=2.0400 $ury=3.0900 $lvl=2
*|S (n0:18 2.0400 0.8200) // $llx=2.0400 $lly=0.8200 $urx=2.0400 $ury=0.8200 $lvl=2
*|S (n0:19 2.0400 0.6550) // $llx=2.0400 $lly=0.6550 $urx=2.0400 $ury=0.6550 $lvl=2
*|S (n0:21 2.0400 0.6050) // $llx=2.0400 $lly=0.6050 $urx=2.0400 $ury=0.6050 $lvl=2
*|S (n0:22 2.0400 0.3950) // $llx=2.0400 $lly=0.3950 $urx=2.0400 $ury=0.3950 $lvl=2
*|S (n0:23 0.9650 1.9500) // $llx=0.9650 $lly=1.9500 $urx=0.9650 $ury=1.9500 $lvl=1
*|S (n0:24 0.9050 2.0950) // $llx=0.9050 $lly=2.0950 $urx=0.9050 $ury=2.0950 $lvl=1
*|S (n0:25 0.8150 3.7150) // $llx=0.8150 $lly=3.7150 $urx=0.8150 $ury=3.7150 $lvl=1
*|S (n0:26 2.0250 3.7150) // $llx=2.0250 $lly=3.7150 $urx=2.0250 $ury=3.7150 $lvl=1
*|S (n0:27 2.0400 3.0900) // $llx=2.0400 $lly=3.0900 $urx=2.0400 $ury=3.0900 $lvl=1
*|S (n0:28 1.6900 2.9750) // $llx=1.6900 $lly=2.9750 $urx=1.6900 $ury=2.9750 $lvl=1
*|S (n0:29 1.6900 1.2000) // $llx=1.6900 $lly=1.2000 $urx=1.6900 $ury=1.2000 $lvl=1
*|S (n0:30 2.0400 1.2000) // $llx=2.0400 $lly=1.2000 $urx=2.0400 $ury=1.2000 $lvl=1
*|S (n0:31 2.0400 0.6550) // $llx=2.0400 $lly=0.6550 $urx=2.0400 $ury=0.6550 $lvl=1
*|S (n0:32 2.0400 0.5100) // $llx=2.0400 $lly=0.5100 $urx=2.0400 $ury=0.5100 $lvl=1
CH1 Mmn0:d VSS! 1.22986e-18 $lvl=4
CH2 Mmp2:g VSS! 1.24082e-18 $lvl=3
CH3 Mmp4:s VSS! 1.52911e-18 $lvl=4
CH4 n0:31 VSS! 6.47657e-18 $lvl=1
CH5 n0:27 VSS! 6.7248e-18 $lvl=1
CH6 n0:23 VSS! 6.51248e-18 $lvl=1
CH7 n0:24 VSS! 6.54429e-18 $lvl=1
CH8 n0:30 VSS! 6.49165e-18 $lvl=1
CH9 n0:25 VSS! 6.1148e-18 $lvl=1
CH10 n0:26 VSS! 4.76939e-18 $lvl=1
CH11 n0:28 VSS! 5.87564e-18 $lvl=1
CH12 n0:29 VSS! 6.54937e-18 $lvl=1
CH13 n0:18 VSS! 9.81718e-18 $lvl=2
CH14 n0:22 VSS! 2.02571e-18 $lvl=2
CH15 n0:14 VSS! 3.14901e-18 $lvl=2
CH16 n0:12 VSS! 4.88216e-18 $lvl=2
CH17 n0:19 VSS! 2.157e-18 $lvl=2
CH18 n0:17 VSS! 1.22321e-18 $lvl=2
CH19 n0:9 VSS! 1.72013e-17 $lvl=3
CH20 n0 VSS! 2.67041e-18 $lvl=3
CH21 n0:25 n3:4 1.08407e-18 $lvl1=1 $lvl2=2
CH22 n0:24 n3:4 9.37349e-19 $lvl1=1 $lvl2=2
CH23 n0:24 n3 7.78032e-19 $lvl1=1 $lvl2=2
CH24 n0:28 n3 4.65582e-19 $lvl1=1 $lvl2=2
CH25 Mmp2:g n3:4 4.28257e-19 $lvl1=3 $lvl2=2
CH26 n0:28 n3:4 3.41443e-19 $lvl1=1 $lvl2=2
CH27 n0:26 n3 2.52574e-19 $lvl1=1 $lvl2=2
CH28 n0 n2:4 6.95491e-19 $lvl1=3 $lvl2=2
CH29 n0:29 n2 3.90825e-19 $lvl1=1 $lvl2=2
CH30 n0:25 n3 6.86536e-18 $lvl1=1 $lvl2=2