*
*|DSPF 1.5
*
*|DATE "Wed Jan  8 23:57:18 2025"
*|VENDOR "Cadence Design Systems"
*|PROGRAM "Cadence Quantus Extraction"
*|VERSION "22.1.0-p089 Linux 64 bit - (Thu Jan 19 11:47:08 PST 2023)"
*|DESIGN AND2X2_HS
*|DIVIDER /
*|DELIMITER :
*|DeviceFingerDelim "@"
*|BUSBIT []
*|GLOBAL_TEMPERATURE 25
*|OPERATING_TEMPERATURE 25

** *VIA_COVERAGE_CODES
** *index FF FS FP FU SF SS SP SU PF PS PP PU UF US UP UU X_by_Y
** * "FF" stands for Full landing and Full coverage
** *0 0 0 0 0 0 0 0 0 0 0 0 0 0 0 0 0
** *1 0 0 0 0 0 0 0 0 0 0 0 0 0 0 0 1 1x1
** *2 0 0 0 0 0 0 0 0 0 0 0 0 0 0 1 0 1x1
** *3 0 0 0 0 0 0 0 0 0 0 0 0 0 1 0 0 1x1
** *4 0 0 0 0 0 0 0 0 0 0 0 0 1 0 0 0 1x1
** *5 0 0 0 0 0 0 0 0 0 0 0 1 0 0 0 0 1x1
** *6 0 0 0 0 0 0 0 0 0 0 1 0 0 0 0 0 1x1
** *7 0 0 0 0 0 0 0 0 0 1 0 0 0 0 0 0 1x1
** *8 0 0 0 0 0 0 0 0 1 0 0 0 0 0 0 0 1x1
** *9 0 0 0 0 0 0 0 1 0 0 0 0 0 0 0 0 1x1
** *10 0 0 0 0 0 0 1 0 0 0 0 0 0 0 0 0 1x1
** *11 0 0 0 0 0 1 0 0 0 0 0 0 0 0 0 0 1x1
** *12 0 0 0 0 1 0 0 0 0 0 0 0 0 0 0 0 1x1
** *13 0 0 0 1 0 0 0 0 0 0 0 0 0 0 0 0 1x1
** *14 0 0 1 0 0 0 0 0 0 0 0 0 0 0 0 0 1x1
** *15 0 1 0 0 0 0 0 0 0 0 0 0 0 0 0 0 1x1
** *16 1 0 0 0 0 0 0 0 0 0 0 0 0 0 0 0 1x1

** *RESISTOR_TYPES
** *1 SHORTING_ELEMENT
** *2 PRES_NG
** *3 PRES_PG
** *4 PRES_NF
** *5 PRES_PF
** *6 TCN_NDIFF
** *7 TCN_PDIFF
** *8 TCN_NFIELD
** *9 TCN_PFIELD
** *10 QUALITY_EXTRACTED
** *11 GCNLAND
** *12 TCNLAND
** *13 DUMMY
** *14 RSD
** *15 BRIDGE

** *RESISTOR_CURRENT_DIRECTION
** *0 HORIZONTAL
** *1 VERTICAL
** *2 45 DEGREE

** QRC_TECH_DIR /vols/wfo_devel/projects/reference_SKY130/tech/sky130_release_0.0.4/quantus/extraction/typical 
** HIERARCHICAL_SPLIT_PINS_DELIMITER '%'
** caps2d version: 10
*
.SUBCKT  AND2X2_HS A B Y
*
*Net Section
*
*|GROUND_NET VSS!
*
*LAYER_MAP
*0 none
*1 metal1
*2 li
*3 poly
*4 diff
*5 licon_diff
*6 mcon
*7 licon
*8 FOX

*|NET B 8.5563e-16
*|P (B X 0 0.4720 2.3920) // $llx=0.4720 $lly=2.3920 $urx=0.4720 $ury=2.3920 $lvl=1
*|I (Mmp1:g Mmp1 g X 0 0.4750 3.3550) // $llx=0.4750 $lly=3.3550 $urx=0.4750 $ury=3.3550 $lvl=3
*|I (Mmn1:g Mmn1 g X 0 0.4750 0.6075) // $llx=0.4750 $lly=0.6075 $urx=0.4750 $ury=0.6075 $lvl=3
*|S (B:8 0.4750 3.8950) // $llx=0.4750 $lly=3.8950 $urx=0.4750 $ury=3.8950 $lvl=3
*|S (B:9 0.4750 2.4550) // $llx=0.4750 $lly=2.4550 $urx=0.4750 $ury=2.4550 $lvl=3
*|S (B:10 0.4750 2.2900) // $llx=0.4750 $lly=2.2900 $urx=0.4750 $ury=2.2900 $lvl=3
*|S (B:11 0.4750 0.2450) // $llx=0.4750 $lly=0.2450 $urx=0.4750 $ury=0.2450 $lvl=3
*|S (B:12 0.6400 2.4550) // $llx=0.6400 $lly=2.4550 $urx=0.6400 $ury=2.4550 $lvl=2
*|S (B:13 0.4750 2.4550) // $llx=0.4750 $lly=2.4550 $urx=0.4750 $ury=2.4550 $lvl=2
*|S (B:14 0.4000 2.4550) // $llx=0.4000 $lly=2.4550 $urx=0.4000 $ury=2.4550 $lvl=2
*|S (B:15 0.0950 2.4550) // $llx=0.0950 $lly=2.4550 $urx=0.0950 $ury=2.4550 $lvl=2
*|S (B:16 0.4600 2.9845) // $llx=0.4600 $lly=2.9845 $urx=0.4600 $ury=2.9845 $lvl=1
*|S (B:17 0.4375 2.5995) // $llx=0.4375 $lly=2.5995 $urx=0.4375 $ury=2.5995 $lvl=1
*|S (B:18 0.4000 2.4550) // $llx=0.4000 $lly=2.4550 $urx=0.4000 $ury=2.4550 $lvl=1
*|S (B:19 0.4375 2.3100) // $llx=0.4375 $lly=2.3100 $urx=0.4375 $ury=2.3100 $lvl=1
*|S (B:20 0.4600 1.5500) // $llx=0.4600 $lly=1.5500 $urx=0.4600 $ury=1.5500 $lvl=1
CB1 Mmn1:g VSS! 1.35388e-18 $lvl=3
CB2 B:8 VSS! 1.11173e-18 $lvl=3
CB3 B:18 VSS! 6.98275e-18 $lvl=1
CB4 B:16 VSS! 3.18512e-18 $lvl=1
CB5 B:20 VSS! 7.67681e-18 $lvl=1
CB6 B:15 VSS! 4.04006e-18 $lvl=2
CB7 B:14 VSS! 4.27888e-18 $lvl=2
CB8 B:9 VSS! 6.12812e-18 $lvl=3
CB9 Mmn1:g net73 8.05905e-19 $lvl1=3 $lvl2=2
CB10 B:20 net73 4.54582e-19 $lvl1=1 $lvl2=2
CB11 Mmn1:g net73:4 4.4264e-19 $lvl1=3 $lvl2=2
CB12 Mmn1:g net73:3 6.56331e-17 $lvl1=3 $lvl2=2
CB13 B:14 n0:43 3.69849e-18 $lvl1=2 $lvl2=1
CB14 B:20 n0:37 3.39102e-18 $lvl1=1 $lvl2=2
CB15 B:20 n0:38 3.31701e-18 $lvl1=1 $lvl2=2
CB16 B:14 n0:34 3.07829e-18 $lvl1=2 $lvl2=2
CB17 B:20 n0:40 2.83525e-18 $lvl1=1 $lvl2=1
CB18 B:16 n0:34 2.34583e-18 $lvl1=1 $lvl2=2
CB19 B:20 n0:25 2.00025e-18 $lvl1=1 $lvl2=2
CB20 B:9 n0:34 1.96185e-18 $lvl1=3 $lvl2=2
CB21 B:9 n0:30 1.8849e-18 $lvl1=3 $lvl2=2
CB22 B:16 n0:30 1.64906e-18 $lvl1=1 $lvl2=2
CB23 B:18 n0:41 1.57404e-18 $lvl1=1 $lvl2=1
CB24 B:16 n0:31 1.30902e-18 $lvl1=1 $lvl2=2
CB25 B:18 n0:34 1.11374e-18 $lvl1=1 $lvl2=2
CB26 B:20 n0:45 1.08056e-18 $lvl1=1 $lvl2=1
CB27 B:14 n0:30 9.92432e-19 $lvl1=2 $lvl2=2
CB28 B:8 n0:34 8.85779e-19 $lvl1=3 $lvl2=2
CB29 B:16 n0:43 8.29281e-19 $lvl1=1 $lvl2=1
CB30 B:9 n0:43 8.24887e-19 $lvl1=3 $lvl2=1
CB31 B:20 n0:26 8.13246e-19 $lvl1=1 $lvl2=2
CB32 B:18 n0:25 7.34888e-19 $lvl1=1 $lvl2=2
CB33 B:9 Mmp1:d 6.90704e-19 $lvl1=3 $lvl2=4
CB34 B:18 n0:40 6.89195e-19 $lvl1=1 $lvl2=1
CB35 B:9 n0:45 6.69037e-19 $lvl1=3 $lvl2=1
CB36 B:18 n0:38 5.76881e-19 $lvl1=1 $lvl2=2
CB37 Mmn1:g n0:29 4.85279e-19 $lvl1=3 $lvl2=2
CB38 B:15 n0:34 4.67896e-19 $lvl1=2 $lvl2=2
CB39 Mmn1:g n0:38 4.5164e-19 $lvl1=3 $lvl2=2
CB40 B:18 n0:30 4.17231e-19 $lvl1=1 $lvl2=2
CB41 B:9 n0:38 4.16561e-19 $lvl1=3 $lvl2=2
CB42 B:15 n0:43 4.14876e-19 $lvl1=2 $lvl2=1
CB43 B:15 n0:45 3.92277e-19 $lvl1=2 $lvl2=1
CB44 B:18 n0:37 3.83716e-19 $lvl1=1 $lvl2=2
CB45 Mmn1:g n0:37 3.47084e-19 $lvl1=3 $lvl2=2
CB46 Mmn1:g n0:26 2.8707e-19 $lvl1=3 $lvl2=2
CB47 B:15 n0:25 2.85645e-19 $lvl1=2 $lvl2=2
CB48 B:18 n0:26 2.76421e-19 $lvl1=1 $lvl2=2
CB49 B:9 n0:23 2.64765e-19 $lvl1=3 $lvl2=3
CB50 B:9 n0:25 2.60747e-19 $lvl1=3 $lvl2=2
CB51 B:9 n0:37 2.60712e-19 $lvl1=3 $lvl2=2
CB52 B:14 n0:38 2.58615e-19 $lvl1=2 $lvl2=2
CB53 Mmn1:g n0:41 2.51554e-19 $lvl1=3 $lvl2=1
CB54 Mmn1:g n0:40 2.47463e-19 $lvl1=3 $lvl2=1
CB55 B:15 n0:41 2.44021e-19 $lvl1=2 $lvl2=1
CB56 B:15 n0:30 2.38393e-19 $lvl1=2 $lvl2=2
CB57 B:15 n0:38 2.31756e-19 $lvl1=2 $lvl2=2
CB58 Mmn1:g n0:25 6.58726e-17 $lvl1=3 $lvl2=2
CB59 B:8 n0:30 1.29669e-16 $lvl1=3 $lvl2=2
CB60 B:18 n0:43 4.43409e-17 $lvl1=1 $lvl2=1
CB61 B:20 n0:43 5.06e-17 $lvl1=1 $lvl2=1
CB62 B:20 n0:41 4.9018e-18 $lvl1=1 $lvl2=1
CB63 B:14 n0:45 5.21517e-18 $lvl1=2 $lvl2=1
CB64 B:18 n0:45 4.17711e-17 $lvl1=1 $lvl2=1
CB65 B:16 n0:45 3.9248e-17 $lvl1=1 $lvl2=1
CB66 Mmn1:g VSS!:11 1.4834e-18 $lvl1=3 $lvl2=2
CB67 B:20 VSS!:13 1.29649e-18 $lvl1=1 $lvl2=1
CB68 B:20 VSS!:14 1.13586e-18 $lvl1=1 $lvl2=1
CB69 B:18 VSS!:13 8.95997e-19 $lvl1=1 $lvl2=1
CB70 B:18 VSS!:14 6.89436e-19 $lvl1=1 $lvl2=1
CB71 Mmn1:g VSS!:5 7.79964e-18 $lvl1=3 $lvl2=2
CB72 B:14 VDD! 3.72362e-18 $lvl1=2 $lvl2=1
CB73 B:18 VDD!:18 2.13325e-18 $lvl1=1 $lvl2=1
CB74 B:16 VDD!:18 2.08768e-18 $lvl1=1 $lvl2=1
CB75 B:16 VDD!:19 1.82787e-18 $lvl1=1 $lvl2=1
CB76 B:18 VDD!:19 1.73422e-18 $lvl1=1 $lvl2=1
CB77 B:18 VDD!:11 1.69854e-18 $lvl1=1 $lvl2=2
CB78 B:8 VDD!:11 1.53191e-18 $lvl1=3 $lvl2=2
CB79 B:9 Mmp2:s 1.43812e-18 $lvl1=3 $lvl2=4
CB80 B:9 Mmp1:s 1.00289e-18 $lvl1=3 $lvl2=4
CB81 B:16 VDD!:11 6.28604e-19 $lvl1=1 $lvl2=2
CB82 B:20 VDD!:1 5.79234e-19 $lvl1=1 $lvl2=2
CB83 B:20 VDD!:18 5.15991e-19 $lvl1=1 $lvl2=1
CB84 B:15 Mmp1:s 4.82972e-19 $lvl1=2 $lvl2=4
CB85 B:20 VDD!:19 4.46728e-19 $lvl1=1 $lvl2=1
CB86 B:15 VDD!:19 4.0673e-19 $lvl1=2 $lvl2=1
CB87 B:16 VDD!:4 3.71168e-19 $lvl1=1 $lvl2=2
CB88 B:15 VDD!:11 3.55145e-19 $lvl1=2 $lvl2=2
CB89 B:18 VDD!:4 2.9698e-19 $lvl1=1 $lvl2=2
CB90 B:18 VDD!:8 2.83067e-19 $lvl1=1 $lvl2=2
CB91 B:16 VDD!:8 2.5354e-19 $lvl1=1 $lvl2=2
CB92 B:18 VDD!:17 2.4331e-19 $lvl1=1 $lvl2=1
CB93 B:14 VDD!:1 4.57383e-18 $lvl1=2 $lvl2=2
CB94 B:18 VDD! 2.37965e-17 $lvl1=1 $lvl2=1
CB95 B:16 VDD! 8.24436e-18 $lvl1=1 $lvl2=1
CB96 B:18 VDD!:1 4.92413e-18 $lvl1=1 $lvl2=2
CB97 B:20 VDD! 1.59494e-17 $lvl1=1 $lvl2=1
CB98 B:8 VDD!:4 8.02795e-18 $lvl1=3 $lvl2=2
CB99 B:9 VDD! 1.84028e-17 $lvl1=3 $lvl2=1
CB100 B:9 VDD!:11 7.31268e-18 $lvl1=3 $lvl2=2
CB101 B:16 VDD!:1 8.80158e-18 $lvl1=1 $lvl2=2
CB102 B:15 VDD!:1 5.5703e-18 $lvl1=2 $lvl2=2
CB103 B:8 VDD!:1 1.30996e-16 $lvl1=3 $lvl2=2
CB104 B:9 VDD!:1 5.16743e-18 $lvl1=3 $lvl2=2
CB105 B:14 VDD!:11 8.88016e-18 $lvl1=2 $lvl2=2
CB106 B:15 VDD! 1.02801e-17 $lvl1=2 $lvl2=1
ReB14 B:16 B:17 0.184958 $metal1  $L=0.3845 $W=0.260000 $SI_W=0.26 $TYPE=10 $DIR=1 $LLX=0.330000 $LLY=2.600000 $URX=0.590000 $URY=2.984500 $lvl=1
ReB15 B:17 B:18 0.062250 $metal1  $L=0.1445 $W=0.305000 $SI_W=0.305 $TYPE=10 $DIR=1 $LLX=0.285000 $LLY=2.455000 $URX=0.590000 $URY=2.599500 $lvl=1
ReB16 B:18 B 0.025820 $metal1  $L=0.063 $W=0.305000 $SI_W=0.305 $TYPE=10 $DIR=1 $LLX=0.285000 $LLY=2.392000 $URX=0.590000 $URY=2.455000 $lvl=1
ReB17 B B:19 0.033504 $metal1  $L=0.0815 $W=0.305000 $SI_W=0.305 $TYPE=10 $DIR=1 $LLX=0.285000 $LLY=2.310500 $URX=0.590000 $URY=2.392000 $lvl=1
ReB18 B:19 B:20 0.365487 $metal1  $L=0.76 $W=0.260000 $SI_W=0.26 $TYPE=10 $DIR=1 $LLX=0.330000 $LLY=1.550000 $URX=0.590000 $URY=2.310000 $lvl=1
RfB19 B:12 B:13 12.423529 $li  $L=0.165 $W=0.170000 $SI_W=0.17 $TYPE=10 $DIR=0 $LLX=0.475000 $LLY=2.370000 $URX=0.640000 $URY=2.540000 $lvl=2
RfB20 B:13 B:14 5.647059 $li  $L=0.075 $W=1000000 $SI_W=1000000 $TYPE=1,10 $DIR=0 $LLX=0.400000 $LLY=2.370000 $URX=0.475000 $URY=2.540000 $lvl=2
RfB21 B:14 B:15 22.964706 $li  $L=0.305 $W=0.170000 $SI_W=0.17 $TYPE=10 $DIR=0 $LLX=0.095000 $LLY=2.370000 $URX=0.400000 $URY=2.540000 $lvl=2
RgB22 B:8 Mmp1:g 173.519989 $poly  $L=0.54 $W=0.150000 $SI_W=0.15 $TYPE=10 $DIR=1 $LLX=0.400000 $LLY=3.355000 $URX=0.550000 $URY=3.895000 $lvl=3
RgB23 Mmp1:g B:9 270.359070 $poly  $L=0.9 $W=0.150000 $SI_W=0.15 $TYPE=10 $DIR=1 $LLX=0.400000 $LLY=2.455000 $URX=0.550000 $URY=3.355000 $lvl=3
RgB24 B:9 B:10 34.134449 $poly  $L=0.1645 $W=0.270000 $SI_W=0.27 $TYPE=10 $DIR=1 $LLX=0.340000 $LLY=2.290500 $URX=0.610000 $URY=2.455000 $lvl=3
RgB25 B:10 Mmn1:g 540.687988 $poly  $L=1.6825 $W=0.150000 $SI_W=0.15 $TYPE=10 $DIR=1 $LLX=0.400000 $LLY=0.607500 $URX=0.550000 $URY=2.290000 $lvl=3
RgB26 Mmn1:g B:11 116.483322 $poly  $L=0.3625 $W=0.150000 $SI_W=0.15 $TYPE=10 $DIR=1 $LLX=0.400000 $LLY=0.245000 $URX=0.550000 $URY=0.607500 $lvl=3
RjB27 B:14 B:18 152.000000 $mcon  $L=0.17 $W=0.17 $A=0.0289 $VC=0 $SAVL=0 $SAVC=0 $SI_A=0.0289 $COVER_DIR=0 $LLX=0.000000 $LLY=0.000000 $URX=0.170000 $URY=0.170000 $lvl=6
RiB28 B:9 B:13 15.000000 $licon  $L=0.17 $W=0.17 $A=0.0289 $VC=0 $SAVL=0 $SAVC=0 $SI_A=0.0289 $COVER_DIR=0 $LLX=0.000000 $LLY=0.000000 $URX=0.170000 $URY=0.170000 $lvl=7
*
*|NET Y 1.87296e-15
*|P (Y X 0 1.8520 2.2840) // $llx=1.8520 $lly=2.2840 $urx=1.8520 $ury=2.2840 $lvl=1
*|I (Mmp2:d Mmp2 d X 0 1.4705 3.0150) // $llx=1.4705 $lly=3.0150 $urx=1.4705 $ury=3.0150 $lvl=4
*|I (Mmp2@1:d Mmp2@1 d X 0 1.7495 3.0150) // $llx=1.7495 $lly=3.0150 $urx=1.7495 $ury=3.0150 $lvl=4
*|I (Mmn2:d Mmn2 d X 0 1.4705 0.7750) // $llx=1.4705 $lly=0.7750 $urx=1.4705 $ury=0.7750 $lvl=4
*|I (Mmn2@1:d Mmn2@1 d X 0 1.7495 0.7750) // $llx=1.7495 $lly=0.7750 $urx=1.7495 $ury=0.7750 $lvl=4
*|S (Y:1 1.6100 3.7450) // $llx=1.6100 $lly=3.7450 $urx=1.6100 $ury=3.7450 $lvl=2
*|S (Y:2 1.6100 3.3250) // $llx=1.6100 $lly=3.3250 $urx=1.6100 $ury=3.3250 $lvl=2
*|S (Y:4 1.6100 3.0150) // $llx=1.6100 $lly=3.0150 $urx=1.6100 $ury=3.0150 $lvl=2
*|S (Y:5 1.6100 2.2850) // $llx=1.6100 $lly=2.2850 $urx=1.6100 $ury=2.2850 $lvl=2
*|S (Y:6 1.6100 1.1550) // $llx=1.6100 $lly=1.1550 $urx=1.6100 $ury=1.1550 $lvl=2
*|S (Y:8 1.6100 0.7750) // $llx=1.6100 $lly=0.7750 $urx=1.6100 $ury=0.7750 $lvl=2
*|S (Y:9 1.6100 0.6050) // $llx=1.6100 $lly=0.6050 $urx=1.6100 $ury=0.6050 $lvl=2
*|S (Y:10 1.6100 0.3950) // $llx=1.6100 $lly=0.3950 $urx=1.6100 $ury=0.3950 $lvl=2
*|S (Y:11 1.6100 3.3250) // $llx=1.6100 $lly=3.3250 $urx=1.6100 $ury=3.3250 $lvl=1
*|S (Y:12 1.8400 3.3250) // $llx=1.8400 $lly=3.3250 $urx=1.8400 $ury=3.3250 $lvl=1
*|S (Y:13 1.8400 0.6050) // $llx=1.8400 $lly=0.6050 $urx=1.8400 $ury=0.6050 $lvl=1
*|S (Y:14 1.6100 0.6050) // $llx=1.6100 $lly=0.6050 $urx=1.6100 $ury=0.6050 $lvl=1
CC1 Mmn2:d VSS! 8.25146e-19 $lvl=4
CC2 Mmp2:d VSS! 2.48753e-18 $lvl=4
CC3 Y:14 VSS! 8.49573e-18 $lvl=1
CC4 Y:11 VSS! 7.68847e-18 $lvl=1
CC5 Y:6 VSS! 8.80318e-18 $lvl=2
CC6 Y:10 VSS! 1.03557e-18 $lvl=2
CC7 Y:1 VSS! 4.26544e-18 $lvl=2
CC8 Y:5 VSS! 3.29e-18 $lvl=2
CC9 Y:9 VSS! 1.31865e-18 $lvl=2
CC10 Y:2 VSS! 1.90738e-18 $lvl=2
CC11 Y VSS! 1.00771e-17 $lvl=1
CC12 Y n0:36 9.24053e-18 $lvl1=1 $lvl2=2
CC13 Y:14 n0:43 6.67637e-18 $lvl1=1 $lvl2=1
CC14 Y n0:43 3.41257e-18 $lvl1=1 $lvl2=1
CC15 Y:1 n0:45 2.87389e-18 $lvl1=2 $lvl2=1
CC16 Y n0:17 2.77002e-18 $lvl1=1 $lvl2=3
CC17 Y n0:45 2.59926e-18 $lvl1=1 $lvl2=1
CC18 Mmn2:d n0:17 2.39871e-18 $lvl1=4 $lvl2=3
CC19 Y:14 n0:17 1.39378e-18 $lvl1=1 $lvl2=3
CC20 Y:9 n0:40 1.21138e-18 $lvl1=2 $lvl2=1
CC21 Y:14 n0:41 1.03193e-18 $lvl1=1 $lvl2=1
CC22 Y:6 n0:40 9.70098e-19 $lvl1=2 $lvl2=1
CC23 Y:11 n0:43 9.66624e-19 $lvl1=1 $lvl2=1
CC24 Y:1 n0:17 9.59314e-19 $lvl1=2 $lvl2=3
CC25 Y:5 n0:23 8.01932e-19 $lvl1=2 $lvl2=3
CC26 Y:5 n0:17 7.65696e-19 $lvl1=2 $lvl2=3
CC27 Y:6 n0:37 7.40069e-19 $lvl1=2 $lvl2=2
CC28 Y:5 n0:15 7.33345e-19 $lvl1=2 $lvl2=3
CC29 Y:10 n0 7.01595e-19 $lvl1=2 $lvl2=3
CC30 Y n0:15 6.95409e-19 $lvl1=1 $lvl2=3
CC31 Y:6 n0:17 1.47237e-17 $lvl1=2 $lvl2=3
CC32 Y:1 n0:23 2.5419e-16 $lvl1=2 $lvl2=3
CC33 Y:6 n0:36 1.71528e-17 $lvl1=2 $lvl2=2
CC34 Y:14 n0:40 1.62792e-17 $lvl1=1 $lvl2=1
CC35 Y:11 n0:45 2.06442e-17 $lvl1=1 $lvl2=1
CC36 Y:6 n0:21 1.27291e-16 $lvl1=2 $lvl2=3
CC37 Y:6 n0 1.30487e-16 $lvl1=2 $lvl2=3
CC38 Y:14 n0:36 1.18304e-17 $lvl1=1 $lvl2=2
CC39 Y:1 n0:15 2.53865e-16 $lvl1=2 $lvl2=3
CC40 Y:10 VSS!:11 4.5747e-18 $lvl1=2 $lvl2=2
CC41 Y:6 VSS!:5 4.34224e-18 $lvl1=2 $lvl2=2
CC42 Y:10 VSS!:3 3.90531e-18 $lvl1=2 $lvl2=2
CC43 Y:6 VSS!:4 3.89869e-18 $lvl1=2 $lvl2=2
CC44 Y:14 VSS!:5 3.87053e-18 $lvl1=1 $lvl2=2
CC45 Y VSS!:3 3.22144e-18 $lvl1=1 $lvl2=2
CC46 Y:14 VSS!:4 3.16966e-18 $lvl1=1 $lvl2=2
CC47 Y:9 VSS!:5 3.02675e-18 $lvl1=2 $lvl2=2
CC48 Y:9 VSS!:13 1.82403e-18 $lvl1=2 $lvl2=1
CC49 Y:9 VSS!:4 1.82378e-18 $lvl1=2 $lvl2=2
CC50 Y VSS!:12 1.51057e-18 $lvl1=1 $lvl2=1
CC51 Y VSS!:13 1.42142e-18 $lvl1=1 $lvl2=1
CC52 Y:10 VSS!:13 1.2267e-18 $lvl1=2 $lvl2=1
CC53 Y:14 VSS!:8 1.00073e-18 $lvl1=1 $lvl2=2
CC54 Mmn2:d VSS!:5 8.81563e-19 $lvl1=4 $lvl2=2
CC55 Mmn2:d VSS!:4 8.66363e-19 $lvl1=4 $lvl2=2
CC56 Y:6 Mmn2@1:s 8.54861e-19 $lvl1=2 $lvl2=4
CC57 Y:6 VSS!:6 8.38852e-19 $lvl1=2 $lvl2=4
CC58 Mmn2:d VSS!:3 7.59734e-19 $lvl1=4 $lvl2=2
CC59 Y:14 VSS!:14 6.79078e-19 $lvl1=1 $lvl2=1
CC60 Y:6 Mmn2:s 6.55341e-19 $lvl1=2 $lvl2=4
CC61 Y:14 VSS!:13 5.22533e-17 $lvl1=1 $lvl2=1
CC62 Y:6 VSS!:3 4.20994e-17 $lvl1=2 $lvl2=2
CC63 Y:9 VSS!:11 8.47237e-18 $lvl1=2 $lvl2=2
CC64 Y:14 VSS!:12 1.62148e-17 $lvl1=1 $lvl2=1
CC65 Y:10 VSS!:5 8.36661e-18 $lvl1=2 $lvl2=2
CC66 Y:10 VSS!:4 7.43792e-18 $lvl1=2 $lvl2=2
CC67 Y:14 VSS!:3 2.80837e-17 $lvl1=1 $lvl2=2
CC68 Y:14 VSS!:11 6.65002e-18 $lvl1=1 $lvl2=2
CC69 Y:6 VSS!:11 4.24161e-17 $lvl1=2 $lvl2=2
CC70 Y:9 VSS!:3 8.08501e-18 $lvl1=2 $lvl2=2
CC71 Y:11 VDD!:11 8.51394e-18 $lvl1=1 $lvl2=2
CC72 Y:5 VDD!:15 7.94186e-18 $lvl1=2 $lvl2=2
CC73 Y:5 VDD!:11 6.47591e-18 $lvl1=2 $lvl2=2
CC74 Y:1 VDD!:18 5.11649e-18 $lvl1=2 $lvl2=1
CC75 Y:11 VDD!:12 2.57787e-18 $lvl1=1 $lvl2=2
CC76 Y:1 VDD!:5 1.79837e-18 $lvl1=2 $lvl2=2
CC77 Y:2 VDD!:11 1.71299e-18 $lvl1=2 $lvl2=2
CC78 Y VDD!:18 1.70445e-18 $lvl1=1 $lvl2=1
CC79 Y:14 VDD!:15 1.63786e-18 $lvl1=1 $lvl2=2
CC80 Y:1 Mmp2@1:s 1.59341e-18 $lvl1=2 $lvl2=4
CC81 Y:2 VDD!:15 1.59185e-18 $lvl1=2 $lvl2=2
CC82 Y VDD!:17 1.55217e-18 $lvl1=1 $lvl2=1
CC83 Mmp2:d VDD!:11 1.51561e-18 $lvl1=4 $lvl2=2
CC84 Y VDD!:11 1.47803e-18 $lvl1=1 $lvl2=2
CC85 Y:1 Mmp2:s 1.47516e-18 $lvl1=2 $lvl2=4
CC86 Y:11 VDD!:5 1.20532e-18 $lvl1=1 $lvl2=2
CC87 Y:1 VDD!:6 1.13937e-18 $lvl1=2 $lvl2=4
CC88 Y:11 VDD!:4 1.11722e-18 $lvl1=1 $lvl2=2
CC89 Mmp2:d VDD!:15 8.70677e-19 $lvl1=4 $lvl2=2
CC90 Y:11 VDD!:16 8.54342e-19 $lvl1=1 $lvl2=2
CC91 Y:1 VDD!:11 9.47987e-17 $lvl1=2 $lvl2=2
CC92 Y:1 VDD!:15 9.16513e-17 $lvl1=2 $lvl2=2
CC93 Y VDD!:15 2.56555e-17 $lvl1=1 $lvl2=2
CC94 Y:1 VDD!:12 1.29887e-17 $lvl1=2 $lvl2=2
CC95 Y:1 VDD!:4 1.27667e-17 $lvl1=2 $lvl2=2
CC96 Y:1 VDD! 1.22018e-17 $lvl1=2 $lvl2=1
CC97 Y:11 VDD!:18 2.6728e-17 $lvl1=1 $lvl2=1
CC98 Y VDD! 3.13222e-17 $lvl1=1 $lvl2=1
CC99 Y:14 VDD! 3.21922e-17 $lvl1=1 $lvl2=1
CC100 Y:11 VDD!:17 1.16723e-17 $lvl1=1 $lvl2=1
CC101 Y:11 VDD! 2.6514e-17 $lvl1=1 $lvl2=1
CC102 Y:11 VDD!:15 3.33376e-17 $lvl1=1 $lvl2=2
ReC29 Y:11 Y:12 0.099246 $metal1  $L=0.23025 $W=0.290000 $SI_W=0.29 $TYPE=10 $DIR=0 $LLX=1.610000 $LLY=3.180000 $URX=1.840000 $URY=3.470000 $lvl=1
ReC30 Y:12 Y 0.500601 $metal1  $L=1.04125 $W=0.260000 $SI_W=0.26 $TYPE=10 $DIR=1 $LLX=1.710000 $LLY=2.284000 $URX=1.970000 $URY=3.325000 $lvl=1
ReC31 Y Y:13 0.807091 $metal1  $L=1.67875 $W=0.260000 $SI_W=0.26 $TYPE=10 $DIR=1 $LLX=1.710000 $LLY=0.605000 $URX=1.970000 $URY=2.284000 $lvl=1
ReC32 Y:13 Y:14 0.099246 $metal1  $L=0.23025 $W=0.290000 $SI_W=0.29 $TYPE=10 $DIR=0 $LLX=1.610000 $LLY=0.460000 $URX=1.840000 $URY=0.750000 $lvl=1
RfC33 Y:1 Y:2 31.623529 $li  $L=0.42 $W=0.170000 $SI_W=0.17 $TYPE=10 $DIR=1 $LLX=1.525000 $LLY=3.325000 $URX=1.695000 $URY=3.745000 $lvl=2
RfC34 Y:2 Y:4 23.341175 $li  $L=0.31 $W=0.170000 $SI_W=0.17 $TYPE=10 $DIR=1 $LLX=1.525000 $LLY=3.015000 $URX=1.695000 $URY=3.325000 $lvl=2
RfC35 Y:4 Y:5 54.964703 $li  $L=0.73 $W=0.170000 $SI_W=0.17 $TYPE=10 $DIR=1 $LLX=1.525000 $LLY=2.285000 $URX=1.695000 $URY=3.015000 $lvl=2
RfC36 Y:6 Y:8 28.611765 $li  $L=0.38 $W=0.170000 $SI_W=0.17 $TYPE=10 $DIR=1 $LLX=1.525000 $LLY=0.775000 $URX=1.695000 $URY=1.155000 $lvl=2
RfC37 Y:8 Y:9 12.800000 $li  $L=0.17 $W=0.170000 $SI_W=0.17 $TYPE=10 $DIR=1 $LLX=1.525000 $LLY=0.605000 $URX=1.695000 $URY=0.775000 $lvl=2
RfC38 Y:9 Y:10 15.811765 $li  $L=0.21 $W=0.170000 $SI_W=0.17 $TYPE=10 $DIR=1 $LLX=1.525000 $LLY=0.395000 $URX=1.695000 $URY=0.605000 $lvl=2
RhC39 Mmn2:d Y:8 7.500000 $licon_diff  $A=0.0578 $VC=0 $SAVL=0 $SAVC=0 $SI_A=0.0578 $COVER_DIR=0 $LLX=0.000000 $LLY=0.000000 $URX=-0.057800 $URY=-2.000000 $lvl=5
Rh_2_C40 Mmp2:d Y:4 3.750000 $licon_diff  $A=0.1156 $VC=0 $SAVL=0 $SAVC=0 $SI_A=0.1156 $COVER_DIR=0 $LLX=0.000000 $LLY=0.000000 $URX=-0.115600 $URY=-4.000000 $lvl=5
RjC41 Y:2 Y:11 152.000000 $mcon  $L=0.17 $W=0.17 $A=0.0289 $VC=0 $SAVL=0 $SAVC=0 $SI_A=0.0289 $COVER_DIR=0 $LLX=0.000000 $LLY=0.000000 $URX=0.170000 $URY=0.170000 $lvl=6
RjC42 Y:9 Y:14 152.000000 $mcon  $L=0.17 $W=0.17 $A=0.0289 $VC=0 $SAVL=0 $SAVC=0 $SI_A=0.0289 $COVER_DIR=0 $LLX=0.000000 $LLY=0.000000 $URX=0.170000 $URY=0.170000 $lvl=6
RmwC43 Mmp2@1:d Mmp2:d 0.001000 $diff $W=1000000 $SI_W=1000000 $TYPE=1 $DIR=0
RmwC44 Mmn2@1:d Mmn2:d 0.001000 $diff $W=1000000 $SI_W=1000000 $TYPE=1 $DIR=0
*
*|NET net73 2.6779e-16
*|I (Mmn1:s Mmn1 s X 0 0.5505 0.6075) // $llx=0.5505 $lly=0.6075 $urx=0.5505 $ury=0.6075 $lvl=4
*|I (Mmn0:d Mmn0 d X 0 0.8295 0.6075) // $llx=0.8295 $lly=0.6075 $urx=0.8295 $ury=0.6075 $lvl=4
*|S (net73 0.6900 0.8195) // $llx=0.6900 $lly=0.8195 $urx=0.6900 $ury=0.8195 $lvl=2
*|S (net73:3 0.6900 0.6050) // $llx=0.6900 $lly=0.6050 $urx=0.6900 $ury=0.6050 $lvl=2
*|S (net73:4 0.6900 0.3950) // $llx=0.6900 $lly=0.3950 $urx=0.6900 $ury=0.3950 $lvl=2
CG1 Mmn1:s VSS! 5.86902e-19 $lvl=4
CG2 net73:3 VSS! 8.22955e-18 $lvl=2
CG3 net73:4 VSS! 7.61477e-19 $lvl=2
CG4 net73 VSS! 3.48399e-18 $lvl=2
CG5 Mmn1:s VSS!:5 1.20192e-18 $lvl1=4 $lvl2=2
CG6 net73:3 VSS!:6 9.92712e-19 $lvl1=2 $lvl2=4
CG7 Mmn1:s VSS!:11 7.46523e-19 $lvl1=4 $lvl2=2
CG8 net73:3 Mmn2:s 6.41605e-19 $lvl1=2 $lvl2=4
CG9 net73:3 VSS!:13 1.55438e-18 $lvl1=2 $lvl2=1
CG10 net73:4 VSS!:11 2.89429e-18 $lvl1=2 $lvl2=2
CG11 net73:3 VSS!:11 1.84801e-17 $lvl1=2 $lvl2=2
CG12 net73:4 VSS!:13 1.95066e-18 $lvl1=2 $lvl2=1
CG13 net73:4 VSS!:5 1.35906e-17 $lvl1=2 $lvl2=2
CG14 net73 VSS!:11 6.49353e-18 $lvl1=2 $lvl2=2
CG15 net73:3 VSS!:5 1.18047e-17 $lvl1=2 $lvl2=2
RfG121 net73 net73:3 16.150589 $li  $L=0.2145 $W=0.170000 $SI_W=0.17 $TYPE=10 $DIR=1 $LLX=0.605000 $LLY=0.605000 $URX=0.775000 $URY=0.819500 $lvl=2
RfG122 net73:3 net73:4 15.811765 $li  $L=0.21 $W=0.170000 $SI_W=0.17 $TYPE=10 $DIR=1 $LLX=0.605000 $LLY=0.395000 $URX=0.775000 $URY=0.605000 $lvl=2
RhG123 Mmn1:s net73:3 15.000000 $licon_diff  $L=0.17 $W=0.17 $A=0.0289 $VC=0 $SAVL=0 $SAVC=0 $SI_A=0.0289 $COVER_DIR=0 $LLX=0.000000 $LLY=0.000000 $URX=0.170000 $URY=0.170000 $lvl=5
RmwG124 Mmn0:d Mmn1:s 0.001000 $diff $W=1000000 $SI_W=1000000 $TYPE=1 $DIR=0
*
*|NET A 9.37468e-16
*|P (A X 0 1.3920 2.1810) // $llx=1.3920 $lly=2.1810 $urx=1.3920 $ury=2.1810 $lvl=1
*|I (Mmp0:g Mmp0 g X 0 0.9050 3.3550) // $llx=0.9050 $lly=3.3550 $urx=0.9050 $ury=3.3550 $lvl=3
*|I (Mmn0:g Mmn0 g X 0 0.9050 0.6075) // $llx=0.9050 $lly=0.6075 $urx=0.9050 $ury=0.6075 $lvl=3
*|S (A:8 0.9050 3.8950) // $llx=0.9050 $lly=3.8950 $urx=0.9050 $ury=3.8950 $lvl=3
*|S (A:9 0.9050 1.8800) // $llx=0.9050 $lly=1.8800 $urx=0.9050 $ury=1.8800 $lvl=3
*|S (A:10 0.9050 1.7150) // $llx=0.9050 $lly=1.7150 $urx=0.9050 $ury=1.7150 $lvl=3
*|S (A:11 0.9050 0.2450) // $llx=0.9050 $lly=0.2450 $urx=0.9050 $ury=0.2450 $lvl=3
*|S (A:12 1.5450 1.8800) // $llx=1.5450 $lly=1.8800 $urx=1.5450 $ury=1.8800 $lvl=2
*|S (A:13 1.3800 1.8800) // $llx=1.3800 $lly=1.8800 $urx=1.3800 $ury=1.8800 $lvl=2
*|S (A:14 0.9050 1.8800) // $llx=0.9050 $lly=1.8800 $urx=0.9050 $ury=1.8800 $lvl=2
*|S (A:15 0.7200 1.8800) // $llx=0.7200 $lly=1.8800 $urx=0.7200 $ury=1.8800 $lvl=2
*|S (A:16 1.3800 2.7750) // $llx=1.3800 $lly=2.7750 $urx=1.3800 $ury=2.7750 $lvl=1
*|S (A:17 1.3800 1.8800) // $llx=1.3800 $lly=1.8800 $urx=1.3800 $ury=1.8800 $lvl=1
*|S (A:18 1.3800 1.3400) // $llx=1.3800 $lly=1.3400 $urx=1.3800 $ury=1.3400 $lvl=1
CA1 Mmn0:g VSS! 8.51588e-19 $lvl=3
CA2 A:8 VSS! 1.09211e-18 $lvl=3
CA3 A:17 VSS! 2.49466e-18 $lvl=1
CA4 A:18 VSS! 3.62379e-18 $lvl=1
CA5 A:14 VSS! 2.44488e-18 $lvl=2
CA6 A:15 VSS! 3.51705e-18 $lvl=2
CA7 A:13 VSS! 6.00892e-18 $lvl=2
CA8 A:9 VSS! 1.86896e-17 $lvl=3
CA9 A VSS! 4.26416e-18 $lvl=1
CA10 Mmn0:g net73 7.37186e-19 $lvl1=3 $lvl2=2
CA11 Mmn0:g net73:4 5.17616e-19 $lvl1=3 $lvl2=2
CA12 Mmn0:g net73:3 6.58024e-17 $lvl1=3 $lvl2=2
CA13 A:15 n0:43 4.4958e-18 $lvl1=2 $lvl2=1
CA14 A:18 n0:37 4.28856e-18 $lvl1=1 $lvl2=2
CA15 A:18 n0:40 4.26399e-18 $lvl1=1 $lvl2=1
CA16 A:9 n0:17 4.1071e-18 $lvl1=3 $lvl2=3
CA17 A:13 n0:37 4.051e-18 $lvl1=2 $lvl2=2
CA18 A:9 n0:38 3.23475e-18 $lvl1=3 $lvl2=2
CA19 A:15 n0:37 2.69643e-18 $lvl1=2 $lvl2=2
CA20 A:15 n0:38 2.29246e-18 $lvl1=2 $lvl2=2
CA21 A:9 n0:23 1.90967e-18 $lvl1=3 $lvl2=3
CA22 A:13 n0:23 1.55244e-18 $lvl1=2 $lvl2=3
CA23 A:14 n0:36 1.37e-18 $lvl1=2 $lvl2=2
CA24 A:14 n0:38 1.36161e-18 $lvl1=2 $lvl2=2
CA25 A:9 n0:43 1.27606e-18 $lvl1=3 $lvl2=1
CA26 A:9 n0:36 1.24599e-18 $lvl1=3 $lvl2=2
CA27 A:13 n0:15 1.10214e-18 $lvl1=2 $lvl2=3
CA28 A:17 n0:45 8.94241e-19 $lvl1=1 $lvl2=1
CA29 A:8 n0:34 8.88452e-19 $lvl1=3 $lvl2=2
CA30 A:14 n0:17 6.54659e-19 $lvl1=2 $lvl2=3
CA31 Mmn0:g n0:25 6.20268e-19 $lvl1=3 $lvl2=2
CA32 A:18 n0:17 5.75964e-19 $lvl1=1 $lvl2=3
CA33 A:9 n0:25 5.52169e-19 $lvl1=3 $lvl2=2
CA34 Mmn0:g n0:37 4.99336e-19 $lvl1=3 $lvl2=2
CA35 A:18 n0:41 4.40559e-19 $lvl1=1 $lvl2=1
CA36 A:18 n0:45 4.03538e-19 $lvl1=1 $lvl2=1
CA37 A:9 n0 3.48665e-19 $lvl1=3 $lvl2=3
CA38 A:17 n0:36 3.29132e-19 $lvl1=1 $lvl2=2
CA39 A:14 n0:45 3.23382e-19 $lvl1=2 $lvl2=1
CA40 A:9 n0:15 3.09646e-19 $lvl1=3 $lvl2=3
CA41 A:8 n0:45 3.00841e-19 $lvl1=3 $lvl2=1
CA42 A:15 n0:25 2.73576e-19 $lvl1=2 $lvl2=2
CA43 A:17 n0:37 2.69595e-19 $lvl1=1 $lvl2=2
CA44 A n0:40 2.61983e-19 $lvl1=1 $lvl2=1
CA45 Mmn0:g n0:38 2.44336e-19 $lvl1=3 $lvl2=2
CA46 A:17 n0:40 2.41912e-19 $lvl1=1 $lvl2=1
CA47 A:9 n0:45 2.29634e-19 $lvl1=3 $lvl2=1
CA48 Mmn0:g n0:40 2.21723e-19 $lvl1=3 $lvl2=1
CA49 A:13 n0:45 2.09507e-19 $lvl1=2 $lvl2=1
CA50 Mmn0:g n0:17 2.02669e-19 $lvl1=3 $lvl2=3
CA51 A:18 n0:36 1.13447e-17 $lvl1=1 $lvl2=2
CA52 A:13 n0:17 9.71131e-18 $lvl1=2 $lvl2=3
CA53 A:14 n0:37 6.44514e-18 $lvl1=2 $lvl2=2
CA54 A:13 n0:36 1.66921e-17 $lvl1=2 $lvl2=2
CA55 A:14 n0:43 9.38487e-18 $lvl1=2 $lvl2=1
CA56 A:17 n0:43 2.67426e-17 $lvl1=1 $lvl2=1
CA57 A:18 n0:43 4.17053e-17 $lvl1=1 $lvl2=1
CA58 A:9 n0:37 5.78924e-18 $lvl1=3 $lvl2=2
CA59 A n0:45 4.45485e-17 $lvl1=1 $lvl2=1
CA60 A n0:43 2.60294e-17 $lvl1=1 $lvl2=1
CA61 A:8 n0:30 1.32731e-16 $lvl1=3 $lvl2=2
CA62 A:13 n0:43 4.97643e-18 $lvl1=2 $lvl2=1
CA63 A:18 VSS!:11 2.61017e-18 $lvl1=1 $lvl2=2
CA64 A:9 VSS!:11 1.3383e-18 $lvl1=3 $lvl2=2
CA65 A:18 VSS!:13 1.15186e-18 $lvl1=1 $lvl2=1
CA66 A:9 Mmn2:s 4.71707e-19 $lvl1=3 $lvl2=4
CA67 Mmn0:g VSS!:11 4.08364e-17 $lvl1=3 $lvl2=2
CA68 Mmn0:g VSS!:5 9.07672e-18 $lvl1=3 $lvl2=2
CA69 A:18 VDD! 4.11593e-18 $lvl1=1 $lvl2=1
CA70 A:14 VDD!:11 4.00097e-18 $lvl1=2 $lvl2=2
CA71 A:17 VDD! 3.12292e-18 $lvl1=1 $lvl2=1
CA72 A:13 VDD!:15 2.74329e-18 $lvl1=2 $lvl2=2
CA73 A:13 VDD! 1.76328e-18 $lvl1=2 $lvl2=1
CA74 A VDD!:15 1.62118e-18 $lvl1=1 $lvl2=2
CA75 A:9 Mmp2:s 1.57083e-18 $lvl1=3 $lvl2=4
CA76 A VDD!:18 1.53049e-18 $lvl1=1 $lvl2=1
CA77 A:15 VDD! 1.28949e-18 $lvl1=2 $lvl2=1
CA78 A:15 VDD!:11 9.32266e-19 $lvl1=2 $lvl2=2
CA79 A:8 VDD!:1 7.3756e-19 $lvl1=3 $lvl2=2
CA80 A:17 VDD!:11 6.45958e-19 $lvl1=1 $lvl2=2
CA81 A VDD!:17 5.22323e-19 $lvl1=1 $lvl2=1
CA82 A:8 VDD!:4 9.70697e-18 $lvl1=3 $lvl2=2
CA83 A:13 VDD!:11 8.91115e-18 $lvl1=2 $lvl2=2
CA84 A:9 VDD! 6.64687e-18 $lvl1=3 $lvl2=1
CA85 A VDD!:11 1.67457e-17 $lvl1=1 $lvl2=2
CA86 A:9 VDD!:11 7.51618e-18 $lvl1=3 $lvl2=2
CA87 A VDD! 6.5269e-18 $lvl1=1 $lvl2=1
CA88 A:8 VDD!:11 6.95983e-17 $lvl1=3 $lvl2=2
CA89 A Y:5 3.85382e-18 $lvl1=1 $lvl2=2
CA90 A:13 Y:1 2.52162e-18 $lvl1=2 $lvl2=2
CA91 A:18 Y:6 2.29178e-18 $lvl1=1 $lvl2=2
CA92 A:17 Y:14 1.63505e-18 $lvl1=1 $lvl2=1
CA93 A Y:14 8.98923e-19 $lvl1=1 $lvl2=1
CA94 A:13 Y:14 7.90853e-19 $lvl1=2 $lvl2=1
CA95 A:17 Y:11 5.149e-19 $lvl1=1 $lvl2=1
CA96 A:17 Y:5 4.57139e-19 $lvl1=1 $lvl2=2
CA97 A:18 Y:14 3.269e-17 $lvl1=1 $lvl2=1
CA98 A:17 Y 3.07211e-17 $lvl1=1 $lvl2=1
CA99 A Y:1 1.06438e-17 $lvl1=1 $lvl2=2
CA100 A Y:11 2.35384e-17 $lvl1=1 $lvl2=1
CA101 A:18 Y 2.2719e-17 $lvl1=1 $lvl2=1
CA102 A:13 Y:5 6.64881e-18 $lvl1=2 $lvl2=2
CA103 A Y 5.94545e-17 $lvl1=1 $lvl2=1
CA104 A:13 Y 7.84807e-18 $lvl1=2 $lvl2=1
CA105 A:15 B:20 3.18002e-18 $lvl1=2 $lvl2=1
CA106 A:15 B:18 2.5135e-18 $lvl1=2 $lvl2=1
CA107 A:15 B:14 2.43247e-18 $lvl1=2 $lvl2=2
CA108 A:9 B:14 2.04452e-18 $lvl1=3 $lvl2=2
CA109 A B:18 1.88076e-18 $lvl1=1 $lvl2=1
CA110 A:15 B:9 1.63206e-18 $lvl1=2 $lvl2=3
CA111 A:8 B:9 1.37252e-18 $lvl1=3 $lvl2=3
CA112 A:14 B:14 1.32977e-18 $lvl1=2 $lvl2=2
CA113 A:9 B:20 1.21886e-18 $lvl1=3 $lvl2=1
CA114 A:14 B:20 1.05155e-18 $lvl1=2 $lvl2=1
CA115 A:14 B:18 1.01853e-18 $lvl1=2 $lvl2=1
CA116 A:9 B:18 9.82436e-19 $lvl1=3 $lvl2=1
CA117 A:18 B:20 7.87989e-19 $lvl1=1 $lvl2=1
CA118 A:14 B:9 6.42221e-19 $lvl1=2 $lvl2=3
CA119 A:17 B:18 6.12197e-19 $lvl1=1 $lvl2=1
CA120 A B:20 5.9237e-19 $lvl1=1 $lvl2=1
CA121 A B:16 5.65687e-19 $lvl1=1 $lvl2=1
CA122 A:9 B:15 5.56517e-19 $lvl1=3 $lvl2=2
CA123 A:18 B:18 5.37367e-19 $lvl1=1 $lvl2=1
CA124 A:17 B:20 5.19504e-19 $lvl1=1 $lvl2=1
CA125 A:9 B:9 4.34744e-18 $lvl1=3 $lvl2=3
ReA1 A:16 A 0.285577 $metal1  $L=0.594 $W=0.260000 $SI_W=0.26 $TYPE=10 $DIR=1 $LLX=1.250000 $LLY=2.181000 $URX=1.510000 $URY=2.775000 $lvl=1
ReA2 A A:17 0.144712 $metal1  $L=0.301 $W=0.260000 $SI_W=0.26 $TYPE=10 $DIR=1 $LLX=1.250000 $LLY=1.880000 $URX=1.510000 $URY=2.181000 $lvl=1
ReA3 A:17 A:18 0.259615 $metal1  $L=0.54 $W=0.260000 $SI_W=0.26 $TYPE=10 $DIR=1 $LLX=1.250000 $LLY=1.340000 $URX=1.510000 $URY=1.880000 $lvl=1
RfA4 A:12 A:13 12.423529 $li  $L=0.165 $W=0.170000 $SI_W=0.17 $TYPE=10 $DIR=0 $LLX=1.380000 $LLY=1.795000 $URX=1.545000 $URY=1.965000 $lvl=2
RfA5 A:13 A:14 35.764706 $li  $L=0.475 $W=0.170000 $SI_W=0.17 $TYPE=10 $DIR=0 $LLX=0.905000 $LLY=1.795000 $URX=1.380000 $URY=1.965000 $lvl=2
RfA6 A:14 A:15 13.929413 $li  $L=0.185 $W=0.170000 $SI_W=0.17 $TYPE=10 $DIR=0 $LLX=0.720000 $LLY=1.795000 $URX=0.905000 $URY=1.965000 $lvl=2
RgA7 A:8 Mmp0:g 173.519989 $poly  $L=0.54 $W=0.150000 $SI_W=0.15 $TYPE=10 $DIR=1 $LLX=0.830000 $LLY=3.355000 $URX=0.980000 $URY=3.895000 $lvl=3
RgA8 Mmp0:g A:9 455.125732 $poly  $L=1.475 $W=0.150000 $SI_W=0.15 $TYPE=10 $DIR=1 $LLX=0.830000 $LLY=1.880000 $URX=0.980000 $URY=3.355000 $lvl=3
RgA9 A:9 A:10 34.134449 $poly  $L=0.1645 $W=0.270000 $SI_W=0.27 $TYPE=10 $DIR=1 $LLX=0.770000 $LLY=1.715500 $URX=1.040000 $URY=1.880000 $lvl=3
RgA10 A:10 Mmn0:g 355.921295 $poly  $L=1.1075 $W=0.150000 $SI_W=0.15 $TYPE=10 $DIR=1 $LLX=0.830000 $LLY=0.607500 $URX=0.980000 $URY=1.715000 $lvl=3
RgA11 Mmn0:g A:11 116.483322 $poly  $L=0.3625 $W=0.150000 $SI_W=0.15 $TYPE=10 $DIR=1 $LLX=0.830000 $LLY=0.245000 $URX=0.980000 $URY=0.607500 $lvl=3
RjA12 A:13 A:17 152.000000 $mcon  $L=0.17 $W=0.17 $A=0.0289 $VC=0 $SAVL=0 $SAVC=0 $SI_A=0.0289 $COVER_DIR=0 $LLX=0.000000 $LLY=0.000000 $URX=0.170000 $URY=0.170000 $lvl=6
RiA13 A:9 A:14 15.000000 $licon  $L=0.17 $W=0.17 $A=0.0289 $VC=0 $SAVL=0 $SAVC=0 $SI_A=0.0289 $COVER_DIR=0 $LLX=0.000000 $LLY=0.000000 $URX=0.170000 $URY=0.170000 $lvl=7
*
*|NET VDD! 2.07454e-15
*|P (VDD! X 0 1.3500 4.1450) // $llx=1.3500 $lly=4.1450 $urx=1.3500 $ury=4.1450 $lvl=1
*|I (Mmp2:s Mmp2 s X 0 1.3195 3.0150) // $llx=1.3195 $lly=3.0150 $urx=1.3195 $ury=3.0150 $lvl=4
*|I (Mmp2:b Mmp2 b X 0 1.3950 3.0150) // $llx=1.3950 $lly=3.0150 $urx=1.3950 $ury=3.0150 $lvl=8
*|I (Mmp2@1:s Mmp2@1 s X 0 1.9005 3.0150) // $llx=1.9005 $lly=3.0150 $urx=1.9005 $ury=3.0150 $lvl=4
*|I (Mmp2@1:b Mmp2@1 b X 0 1.8250 3.0150) // $llx=1.8250 $lly=3.0150 $urx=1.8250 $ury=3.0150 $lvl=8
*|I (Mmp1:s Mmp1 s X 0 0.3995 3.3550) // $llx=0.3995 $lly=3.3550 $urx=0.3995 $ury=3.3550 $lvl=4
*|I (Mmp1:b Mmp1 b X 0 0.4750 3.3550) // $llx=0.4750 $lly=3.3550 $urx=0.4750 $ury=3.3550 $lvl=8
*|I (Mmp0:s Mmp0 s X 0 0.9805 3.3550) // $llx=0.9805 $lly=3.3550 $urx=0.9805 $ury=3.3550 $lvl=4
*|I (Mmp0:b Mmp0 b X 0 0.9050 3.3550) // $llx=0.9050 $lly=3.3550 $urx=0.9050 $ury=3.3550 $lvl=8
*|S (VDD!:1 0.2600 2.9650) // $llx=0.2600 $lly=2.9650 $urx=0.2600 $ury=2.9650 $lvl=2
*|S (VDD!:3 0.2600 3.3550) // $llx=0.2600 $lly=3.3550 $urx=0.2600 $ury=3.3550 $lvl=2
*|S (VDD!:4 0.2600 4.1400) // $llx=0.2600 $lly=4.1400 $urx=0.2600 $ury=4.1400 $lvl=2
*|S (VDD!:5 1.1500 4.1400) // $llx=1.1500 $lly=4.1400 $urx=1.1500 $ury=4.1400 $lvl=2
*|S (VDD!:6 1.1500 4.1400) // $llx=1.1500 $lly=4.1400 $urx=1.1500 $ury=4.1400 $lvl=4
*|S (VDD!:8 0.0000 4.1400) // $llx=0.0000 $lly=4.1400 $urx=0.0000 $ury=4.1400 $lvl=2
*|S (VDD!:10 1.1800 3.0150) // $llx=1.1800 $lly=3.0150 $urx=1.1800 $ury=3.0150 $lvl=2
*|S (VDD!:11 1.1800 2.2850) // $llx=1.1800 $lly=2.2850 $urx=1.1800 $ury=2.2850 $lvl=2
*|S (VDD!:12 2.0400 4.1400) // $llx=2.0400 $lly=4.1400 $urx=2.0400 $ury=4.1400 $lvl=2