*
*|DSPF 1.5
*
*|DATE "Wed Jan  8 23:54:30 2025"
*|VENDOR "Cadence Design Systems"
*|PROGRAM "Cadence Quantus Extraction"
*|VERSION "22.1.0-p089 Linux 64 bit - (Thu Jan 19 11:47:08 PST 2023)"
*|DESIGN AND3X1_HS
*|DIVIDER /
*|DELIMITER :
*|DeviceFingerDelim "@"
*|BUSBIT []
*|GLOBAL_TEMPERATURE 25
*|OPERATING_TEMPERATURE 25

** *VIA_COVERAGE_CODES
** *index FF FS FP FU SF SS SP SU PF PS PP PU UF US UP UU X_by_Y
** * "FF" stands for Full landing and Full coverage
** *0 0 0 0 0 0 0 0 0 0 0 0 0 0 0 0 0
** *1 0 0 0 0 0 0 0 0 0 0 0 0 0 0 0 1 1x1
** *2 0 0 0 0 0 0 0 0 0 0 0 0 0 0 1 0 1x1
** *3 0 0 0 0 0 0 0 0 0 0 0 0 0 1 0 0 1x1
** *4 0 0 0 0 0 0 0 0 0 0 0 0 1 0 0 0 1x1
** *5 0 0 0 0 0 0 0 0 0 0 0 1 0 0 0 0 1x1
** *6 0 0 0 0 0 0 0 0 0 0 1 0 0 0 0 0 1x1
** *7 0 0 0 0 0 0 0 0 0 1 0 0 0 0 0 0 1x1
** *8 0 0 0 0 0 0 0 0 1 0 0 0 0 0 0 0 1x1
** *9 0 0 0 0 0 0 0 1 0 0 0 0 0 0 0 0 1x1
** *10 0 0 0 0 0 0 1 0 0 0 0 0 0 0 0 0 1x1
** *11 0 0 0 0 0 1 0 0 0 0 0 0 0 0 0 0 1x1
** *12 0 0 0 0 1 0 0 0 0 0 0 0 0 0 0 0 1x1
** *13 0 0 0 1 0 0 0 0 0 0 0 0 0 0 0 0 1x1
** *14 0 0 1 0 0 0 0 0 0 0 0 0 0 0 0 0 1x1
** *15 0 1 0 0 0 0 0 0 0 0 0 0 0 0 0 0 1x1
** *16 1 0 0 0 0 0 0 0 0 0 0 0 0 0 0 0 1x1

** *RESISTOR_TYPES
** *1 SHORTING_ELEMENT
** *2 PRES_NG
** *3 PRES_PG
** *4 PRES_NF
** *5 PRES_PF
** *6 TCN_NDIFF
** *7 TCN_PDIFF
** *8 TCN_NFIELD
** *9 TCN_PFIELD
** *10 QUALITY_EXTRACTED
** *11 GCNLAND
** *12 TCNLAND
** *13 DUMMY
** *14 RSD
** *15 BRIDGE

** *RESISTOR_CURRENT_DIRECTION
** *0 HORIZONTAL
** *1 VERTICAL
** *2 45 DEGREE

** QRC_TECH_DIR /vols/wfo_devel/projects/reference_SKY130/tech/sky130_release_0.0.4/quantus/extraction/typical 
** HIERARCHICAL_SPLIT_PINS_DELIMITER '%'
** caps2d version: 10
*
.SUBCKT  AND3X1_HS A B C Y
*
*Net Section
*
*|GROUND_NET VSS!
*
*LAYER_MAP
*0 none
*1 metal1
*2 li
*3 poly
*4 diff
*5 licon_diff
*6 mcon
*7 licon
*8 FOX

*|NET A 7.72569e-16
*|P (A X 0 0.4750 1.4100) // $llx=0.4750 $lly=1.4100 $urx=0.4750 $ury=1.4100 $lvl=1
*|I (Mmp0:g Mmp0 g X 0 0.4750 3.3550) // $llx=0.4750 $lly=3.3550 $urx=0.4750 $ury=3.3550 $lvl=3
*|I (Mmn0:g Mmn0 g X 0 0.4750 0.8025) // $llx=0.4750 $lly=0.8025 $urx=0.4750 $ury=0.8025 $lvl=3
*|S (A:8 0.4750 3.8950) // $llx=0.4750 $lly=3.8950 $urx=0.4750 $ury=3.8950 $lvl=3
*|S (A:9 0.4150 1.6795) // $llx=0.4150 $lly=1.6795 $urx=0.4150 $ury=1.6795 $lvl=3
*|S (A:10 0.4150 1.5150) // $llx=0.4150 $lly=1.5150 $urx=0.4150 $ury=1.5150 $lvl=3
*|S (A:11 0.4150 1.3500) // $llx=0.4150 $lly=1.3500 $urx=0.4150 $ury=1.3500 $lvl=3
*|S (A:12 0.4750 0.4400) // $llx=0.4750 $lly=0.4400 $urx=0.4750 $ury=0.4400 $lvl=3
*|S (A:13 0.6250 1.5150) // $llx=0.6250 $lly=1.5150 $urx=0.6250 $ury=1.5150 $lvl=2
*|S (A:14 0.4600 1.5150) // $llx=0.4600 $lly=1.5150 $urx=0.4600 $ury=1.5150 $lvl=2
*|S (A:15 0.4150 1.5150) // $llx=0.4150 $lly=1.5150 $urx=0.4150 $ury=1.5150 $lvl=2
*|S (A:16 0.0950 1.5150) // $llx=0.0950 $lly=1.5150 $urx=0.0950 $ury=1.5150 $lvl=2
*|S (A:17 0.4600 2.0550) // $llx=0.4600 $lly=2.0550 $urx=0.4600 $ury=2.0550 $lvl=1
*|S (A:18 0.4600 1.5150) // $llx=0.4600 $lly=1.5150 $urx=0.4600 $ury=1.5150 $lvl=1
*|S (A:19 0.4600 0.8150) // $llx=0.4600 $lly=0.8150 $urx=0.4600 $ury=0.8150 $lvl=1
CA1 A:8 VSS! 1.33256e-18 $lvl=3
CA2 A:12 VSS! 2.20403e-18 $lvl=3
CA3 A:17 VSS! 4.50366e-18 $lvl=1
CA4 A:19 VSS! 8.58956e-18 $lvl=1
CA5 A:13 VSS! 4.67128e-18 $lvl=2
CA6 A:16 VSS! 4.97321e-18 $lvl=2
CA7 A:14 VSS! 4.05396e-18 $lvl=2
CA8 A:10 VSS! 2.23024e-17 $lvl=3
CA9 A VSS! 4.4813e-18 $lvl=1
CA10 A:13 net0102:3 1.13192e-18 $lvl1=2 $lvl2=2
CA11 A:14 net0102 1.09033e-18 $lvl1=2 $lvl2=2
CA12 A:14 net0102:3 7.45155e-19 $lvl1=2 $lvl2=2
CA13 A:10 Mmn1:s 7.0498e-19 $lvl1=3 $lvl2=4
CA14 A:12 net0102 6.84059e-19 $lvl1=3 $lvl2=2
CA15 A:12 net0102:4 5.86715e-19 $lvl1=3 $lvl2=2
CA16 A:16 net0102:3 4.65888e-19 $lvl1=2 $lvl2=2
CA17 A:16 net0102 4.09514e-19 $lvl1=2 $lvl2=2
CA18 A:10 net0102:3 2.06936e-18 $lvl1=3 $lvl2=2
CA19 A:19 net0102:3 7.17026e-18 $lvl1=1 $lvl2=2
CA20 A:19 net0102:4 1.79197e-18 $lvl1=1 $lvl2=2
CA21 A:10 net0102 1.65055e-18 $lvl1=3 $lvl2=2
CA22 A:19 net0102 4.24896e-18 $lvl1=1 $lvl2=2
CA23 A:13 net0102 1.88031e-18 $lvl1=2 $lvl2=2
CA24 A:12 net0102:3 6.50994e-17 $lvl1=3 $lvl2=2
CA25 A:19 net086:30 3.34836e-18 $lvl1=1 $lvl2=1
CA26 A:17 net086:37 3.26153e-18 $lvl1=1 $lvl2=1
CA27 A:8 net086:17 1.24918e-18 $lvl1=3 $lvl2=2
CA28 A:17 net086:17 9.99064e-19 $lvl1=1 $lvl2=2
CA29 A:17 net086:13 9.54123e-19 $lvl1=1 $lvl2=2
CA30 A:17 net086:36 8.56402e-19 $lvl1=1 $lvl2=1
CA31 A:19 net086:33 7.76274e-19 $lvl1=1 $lvl2=1
CA32 A:19 net086:37 7.01561e-19 $lvl1=1 $lvl2=1
CA33 A:8 net086:18 6.96171e-19 $lvl1=3 $lvl2=2
CA34 A:19 net086:32 6.81153e-19 $lvl1=1 $lvl2=1
CA35 A:17 net086:33 5.83686e-19 $lvl1=1 $lvl2=1
CA36 A:17 net086:34 5.41777e-19 $lvl1=1 $lvl2=1
CA37 A:19 net086:23 4.72293e-19 $lvl1=1 $lvl2=2
CA38 A net086:30 4.04e-19 $lvl1=1 $lvl2=1
CA39 A:16 net086:37 3.96915e-19 $lvl1=2 $lvl2=1
CA40 A net086:37 3.65462e-19 $lvl1=1 $lvl2=1
CA41 A:17 net086:30 3.41935e-19 $lvl1=1 $lvl2=1
CA42 A:16 net086:13 3.32721e-19 $lvl1=2 $lvl2=2
CA43 A:19 net086:26 3.18704e-19 $lvl1=1 $lvl2=2
CA44 A:10 net086:13 3.15514e-19 $lvl1=3 $lvl2=2
CA45 A net086:33 3.06742e-19 $lvl1=1 $lvl2=1
CA46 A:19 net086:13 3.02943e-19 $lvl1=1 $lvl2=2
CA47 A:19 net086:34 2.91924e-19 $lvl1=1 $lvl2=1
CA48 A:8 net086:37 2.72907e-19 $lvl1=3 $lvl2=1
CA49 A:10 net086:17 2.67806e-19 $lvl1=3 $lvl2=2
CA50 A:17 net086:32 2.52411e-19 $lvl1=1 $lvl2=1
CA51 A:10 net086:37 2.45698e-19 $lvl1=3 $lvl2=1
CA52 A:19 net086:36 2.43059e-19 $lvl1=1 $lvl2=1
CA53 A:17 net086:16 2.21348e-19 $lvl1=1 $lvl2=2
CA54 A:13 net086:23 1.98266e-19 $lvl1=2 $lvl2=2
CA55 A:10 net086:23 1.91819e-19 $lvl1=3 $lvl2=2
CA56 A:16 net086:17 1.802e-19 $lvl1=2 $lvl2=2
CA57 A:8 net086:22 1.62852e-19 $lvl1=3 $lvl2=2
CA58 A:17 Mmp0:d 1.5856e-19 $lvl1=1 $lvl2=4
CA59 A net086:34 1.52226e-19 $lvl1=1 $lvl2=1
CA60 A:8 net086:13 1.30115e-16 $lvl1=3 $lvl2=2
CA61 A:19 VSS!:8 3.21538e-18 $lvl1=1 $lvl2=2
CA62 A:14 VSS!:13 2.06067e-18 $lvl1=2 $lvl2=2
CA63 A:13 VSS!:13 1.55415e-18 $lvl1=2 $lvl2=2
CA64 A:17 VSS!:15 1.31523e-18 $lvl1=1 $lvl2=1
CA65 A VSS!:15 1.29491e-18 $lvl1=1 $lvl2=1
CA66 A:10 Mmn0:s 1.10908e-18 $lvl1=3 $lvl2=4
CA67 A:19 VSS!:5 1.10756e-18 $lvl1=1 $lvl2=2
CA68 A:17 VSS!:13 1.06924e-18 $lvl1=1 $lvl2=2
CA69 A:17 VSS!:16 8.76454e-19 $lvl1=1 $lvl2=1
CA70 A VSS!:13 7.90257e-19 $lvl1=1 $lvl2=2
CA71 A:19 VSS!:9 7.07146e-19 $lvl1=1 $lvl2=2
CA72 A VSS!:16 6.10621e-19 $lvl1=1 $lvl2=1
CA73 A:16 VSS!:16 3.82537e-19 $lvl1=2 $lvl2=1
CA74 A:16 Mmn0:s 3.67234e-19 $lvl1=2 $lvl2=4
CA75 A:16 VSS!:15 3.41506e-19 $lvl1=2 $lvl2=1
CA76 A:17 VSS!:8 2.48096e-19 $lvl1=1 $lvl2=2
CA77 A:19 VSS!:14 2.41241e-19 $lvl1=1 $lvl2=1
CA78 A:19 Mmn0:s 2.33365e-19 $lvl1=1 $lvl2=4
CA79 A:16 VSS!:13 5.2352e-18 $lvl1=2 $lvl2=2
CA80 A:10 VSS!:13 6.35039e-18 $lvl1=3 $lvl2=2
CA81 A:19 VSS!:15 1.6287e-17 $lvl1=1 $lvl2=1
CA82 A:19 VSS!:16 7.22937e-18 $lvl1=1 $lvl2=1
CA83 A:12 VSS!:8 4.58236e-18 $lvl1=3 $lvl2=2
CA84 A:12 VSS!:13 6.85291e-17 $lvl1=3 $lvl2=2
CA85 A:19 VSS!:13 1.70303e-17 $lvl1=1 $lvl2=2
CA86 A:14 VDD! 2.01107e-18 $lvl1=2 $lvl2=1
CA87 A:13 VDD! 1.29401e-18 $lvl1=2 $lvl2=1
CA88 A:17 VDD!:18 9.24247e-19 $lvl1=1 $lvl2=1
CA89 A:17 VDD!:19 6.3707e-19 $lvl1=1 $lvl2=1
CA90 A:19 VDD!:18 6.18593e-19 $lvl1=1 $lvl2=1
CA91 A:17 VDD!:3 6.02841e-19 $lvl1=1 $lvl2=2
CA92 A:8 VDD!:8 5.6107e-19 $lvl1=3 $lvl2=2
CA93 A VDD!:18 3.47564e-19 $lvl1=1 $lvl2=1
CA94 A:8 VDD!:3 1.3063e-16 $lvl1=3 $lvl2=2
CA95 A:10 VDD! 8.88e-18 $lvl1=3 $lvl2=1
CA96 A:17 VDD! 1.74358e-17 $lvl1=1 $lvl2=1
CA97 A:19 VDD! 1.95158e-17 $lvl1=1 $lvl2=1
CA98 A:8 VDD!:4 7.59104e-18 $lvl1=3 $lvl2=2
CA99 A:16 VDD! 9.46282e-18 $lvl1=2 $lvl2=1
CA100 A VDD! 6.56393e-18 $lvl1=1 $lvl2=1
CA101 A C:19 2.49253e-18 $lvl1=1 $lvl2=1
CA102 A:17 C:19 1.62028e-18 $lvl1=1 $lvl2=1
CA103 A:10 C:10 1.43378e-18 $lvl1=3 $lvl2=3
CA104 A:13 C:16 1.35207e-18 $lvl1=2 $lvl2=2
CA105 A:17 C:17 1.17288e-18 $lvl1=1 $lvl2=1
CA106 A:10 C:16 1.05603e-18 $lvl1=3 $lvl2=2
CA107 A:13 C:10 1.00507e-18 $lvl1=2 $lvl2=3
CA108 A:13 C:19 9.57097e-19 $lvl1=2 $lvl2=1
CA109 A:19 C 9.41573e-19 $lvl1=1 $lvl2=1
CA110 A:14 C:19 6.31121e-19 $lvl1=2 $lvl2=1
CA111 A:19 C:17 5.93334e-19 $lvl1=1 $lvl2=1
CA112 A:17 C 5.84916e-19 $lvl1=1 $lvl2=1
CA113 A:13 C:15 4.79229e-19 $lvl1=2 $lvl2=2
CA114 A:19 C:16 4.78461e-19 $lvl1=1 $lvl2=2
CA115 A:10 C:19 4.54247e-19 $lvl1=3 $lvl2=1
CA116 A:17 C:16 4.38468e-19 $lvl1=1 $lvl2=2
CA117 A:19 C:15 4.0935e-19 $lvl1=1 $lvl2=2
CA118 A C 3.59551e-19 $lvl1=1 $lvl2=1
CA119 A:14 C:16 3.51204e-19 $lvl1=2 $lvl2=2
CA120 A C:17 3.27819e-19 $lvl1=1 $lvl2=1
CA121 A:10 Mmn2:g 3.27366e-19 $lvl1=3 $lvl2=3
CA122 A:17 C:10 3.15708e-19 $lvl1=1 $lvl2=3
CA123 A:19 C:19 1.0219e-17 $lvl1=1 $lvl2=1
CA124 A:17 B:16 3.69582e-18 $lvl1=1 $lvl2=1
CA125 A:14 B:18 2.39994e-18 $lvl1=2 $lvl2=1
CA126 A:13 B:18 2.39528e-18 $lvl1=2 $lvl2=1
CA127 A:10 B:9 1.81421e-18 $lvl1=3 $lvl2=3
CA128 A:8 B:9 1.71611e-18 $lvl1=3 $lvl2=3
CA129 A:10 B:15 1.55895e-18 $lvl1=3 $lvl2=2
CA130 A:17 B:13 1.49762e-18 $lvl1=1 $lvl2=2
CA131 A:10 Mmn1:g 1.19638e-18 $lvl1=3 $lvl2=3
CA132 A:10 B:18 1.10114e-18 $lvl1=3 $lvl2=1
CA133 A:8 B:15 1.09958e-18 $lvl1=3 $lvl2=2
CA134 A:17 B:9 1.06139e-18 $lvl1=1 $lvl2=3
CA135 A:16 B:15 8.94493e-19 $lvl1=2 $lvl2=2
CA136 A:14 B:15 8.27705e-19 $lvl1=2 $lvl2=2
CA137 A:13 B:15 6.95162e-19 $lvl1=2 $lvl2=2
CA138 A:19 B:16 6.36683e-19 $lvl1=1 $lvl2=1
CA139 A:13 B:9 6.05162e-19 $lvl1=2 $lvl2=3
CA140 A:13 Mmn1:g 5.10065e-19 $lvl1=2 $lvl2=3
CA141 A:16 B:18 4.59346e-19 $lvl1=2 $lvl2=1
CA142 A:14 B:9 4.05112e-19 $lvl1=2 $lvl2=3
CA143 A:16 B:9 4.039e-19 $lvl1=2 $lvl2=3
CA144 A:19 B 4.01104e-19 $lvl1=1 $lvl2=1
CA145 A B:16 3.91767e-19 $lvl1=1 $lvl2=1
CA146 A:17 B:12 3.44299e-19 $lvl1=1 $lvl2=2
CA147 A:13 B:13 3.44277e-19 $lvl1=2 $lvl2=2
CA148 A:10 B:13 3.43921e-19 $lvl1=3 $lvl2=2
CA149 A:13 B:12 2.88389e-19 $lvl1=2 $lvl2=2
CA150 A:19 B:15 2.73613e-19 $lvl1=1 $lvl2=2
CA151 A:19 Mmn1:g 2.7122e-19 $lvl1=1 $lvl2=3
CA152 A:17 B 5.21131e-18 $lvl1=1 $lvl2=1
CA153 A:19 B:18 5.7076e-18 $lvl1=1 $lvl2=1
CA154 A:17 B:18 4.47224e-17 $lvl1=1 $lvl2=1
CA155 A:17 B:15 4.90373e-18 $lvl1=1 $lvl2=2
CA156 A B:18 8.54408e-18 $lvl1=1 $lvl2=1
ReA1 A:17 A:18 0.259615 $metal1  $L=0.54 $W=0.260000 $SI_W=0.26 $TYPE=10 $DIR=1 $LLX=0.330000 $LLY=1.515000 $URX=0.590000 $URY=2.055000 $lvl=1
ReA2 A:18 A 0.050481 $metal1  $L=0.105 $W=0.260000 $SI_W=0.26 $TYPE=10 $DIR=1 $LLX=0.330000 $LLY=1.410000 $URX=0.590000 $URY=1.515000 $lvl=1
ReA3 A A:19 0.286058 $metal1  $L=0.595 $W=0.260000 $SI_W=0.26 $TYPE=10 $DIR=1 $LLX=0.330000 $LLY=0.815000 $URX=0.590000 $URY=1.410000 $lvl=1
RfA4 A:13 A:14 12.423529 $li  $L=0.165 $W=0.170000 $SI_W=0.17 $TYPE=10 $DIR=0 $LLX=0.460000 $LLY=1.430000 $URX=0.625000 $URY=1.600000 $lvl=2
RfA5 A:14 A:15 3.388236 $li  $L=0.045 $W=1000000 $SI_W=1000000 $TYPE=1,10 $DIR=0 $LLX=0.415000 $LLY=1.430000 $URX=0.460000 $URY=1.600000 $lvl=2
RfA6 A:15 A:16 24.094118 $li  $L=0.32 $W=0.170000 $SI_W=0.17 $TYPE=10 $DIR=0 $LLX=0.095000 $LLY=1.430000 $URX=0.415000 $URY=1.600000 $lvl=2
RgA7 A:8 Mmp0:g 173.519989 $poly  $L=0.54 $W=0.150000 $SI_W=0.15 $TYPE=10 $DIR=1 $LLX=0.400000 $LLY=3.355000 $URX=0.550000 $URY=3.895000 $lvl=3
RgA8 Mmp0:g A:9 538.277954 $poly  $L=1.675 $W=0.150000 $SI_W=0.15 $TYPE=10 $DIR=1 $LLX=0.400000 $LLY=1.679500 $URX=0.550000 $URY=3.354500 $lvl=3
RgA9 A:9 A:10 38.857975 $poly  $L=0.1645 $W=0.270000 $SI_W=0.27 $TYPE=10 $DIR=1 $LLX=0.280000 $LLY=1.515000 $URX=0.550000 $URY=1.679500 $lvl=3
RgA10 A:10 A:11 29.410927 $poly  $L=0.1645 $W=0.270000 $SI_W=0.27 $TYPE=10 $DIR=1 $LLX=0.280000 $LLY=1.350500 $URX=0.550000 $URY=1.515000 $lvl=3
RgA11 A:11 Mmn0:g 175.974625 $poly  $L=0.5475 $W=0.150000 $SI_W=0.15 $TYPE=10 $DIR=1 $LLX=0.400000 $LLY=0.802500 $URX=0.550000 $URY=1.350000 $lvl=3
RgA12 Mmn0:g A:12 116.483322 $poly  $L=0.3625 $W=0.150000 $SI_W=0.15 $TYPE=10 $DIR=1 $LLX=0.400000 $LLY=0.440000 $URX=0.550000 $URY=0.802500 $lvl=3
RjA13 A:14 A:18 152.000000 $mcon  $L=0.17 $W=0.17 $A=0.0289 $VC=0 $SAVL=0 $SAVC=0 $SI_A=0.0289 $COVER_DIR=0 $LLX=0.000000 $LLY=0.000000 $URX=0.170000 $URY=0.170000 $lvl=6
RiA14 A:10 A:15 15.000000 $licon  $L=0.17 $W=0.17 $A=0.0289 $VC=0 $SAVL=0 $SAVC=0 $SI_A=0.0289 $COVER_DIR=0 $LLX=0.000000 $LLY=0.000000 $URX=0.170000 $URY=0.170000 $lvl=7
*
*|NET C 8.27756e-16
*|P (C X 0 1.3950 1.6250) // $llx=1.3950 $lly=1.6250 $urx=1.3950 $ury=1.6250 $lvl=1
*|I (Mmp2:g Mmp2 g X 0 1.3350 3.3550) // $llx=1.3350 $lly=3.3550 $urx=1.3350 $ury=3.3550 $lvl=3
*|I (Mmn2:g Mmn2 g X 0 1.3350 0.8025) // $llx=1.3350 $lly=0.8025 $urx=1.3350 $ury=0.8025 $lvl=3
*|S (C:8 1.3350 3.8950) // $llx=1.3350 $lly=3.8950 $urx=1.3350 $ury=3.8950 $lvl=3
*|S (C:9 1.3950 1.8945) // $llx=1.3950 $lly=1.8945 $urx=1.3950 $ury=1.8945 $lvl=3
*|S (C:10 1.3950 1.7300) // $llx=1.3950 $lly=1.7300 $urx=1.3950 $ury=1.7300 $lvl=3
*|S (C:11 1.3950 1.5650) // $llx=1.3950 $lly=1.5650 $urx=1.3950 $ury=1.5650 $lvl=3
*|S (C:12 1.3350 0.4400) // $llx=1.3350 $lly=0.4400 $urx=1.3350 $ury=0.4400 $lvl=3
*|S (C:13 1.5600 1.7300) // $llx=1.5600 $lly=1.7300 $urx=1.5600 $ury=1.7300 $lvl=2
*|S (C:14 1.3950 1.7300) // $llx=1.3950 $lly=1.7300 $urx=1.3950 $ury=1.7300 $lvl=2
*|S (C:15 1.3800 1.7300) // $llx=1.3800 $lly=1.7300 $urx=1.3800 $ury=1.7300 $lvl=2
*|S (C:16 1.2100 1.7300) // $llx=1.2100 $lly=1.7300 $urx=1.2100 $ury=1.7300 $lvl=2
*|S (C:17 1.3800 2.2700) // $llx=1.3800 $lly=2.2700 $urx=1.3800 $ury=2.2700 $lvl=1
*|S (C:18 1.3800 1.7300) // $llx=1.3800 $lly=1.7300 $urx=1.3800 $ury=1.7300 $lvl=1
*|S (C:19 1.3800 1.0300) // $llx=1.3800 $lly=1.0300 $urx=1.3800 $ury=1.0300 $lvl=1
CC1 Mmn2:g VSS! 2.55765e-18 $lvl=3
CC2 Mmp2:g VSS! 1.29686e-18 $lvl=3
CC3 C:17 VSS! 5.93786e-18 $lvl=1
CC4 C:19 VSS! 9.80651e-18 $lvl=1
CC5 C:16 VSS! 5.64522e-18 $lvl=2
CC6 C:15 VSS! 3.74075e-18 $lvl=2
CC7 C:10 VSS! 2.15871e-17 $lvl=3
CC8 C VSS! 4.19939e-18 $lvl=1
CC9 C:10 net0106:3 1.03092e-18 $lvl1=3 $lvl2=2
CC10 C:16 net0106 9.61092e-19 $lvl1=2 $lvl2=2
CC11 C:10 net0106 9.24818e-19 $lvl1=3 $lvl2=2
CC12 Mmn2:g net0106 8.28096e-19 $lvl1=3 $lvl2=2
CC13 C:15 net0106 5.95581e-19 $lvl1=2 $lvl2=2
CC14 Mmn2:g net0106:4 5.83783e-19 $lvl1=3 $lvl2=2
CC15 C:19 net0106:4 5.75919e-19 $lvl1=1 $lvl2=2
CC16 C:16 net0106:3 5.65434e-19 $lvl1=2 $lvl2=2
CC17 Mmn2:g net0106:3 6.64084e-17 $lvl1=3 $lvl2=2
CC18 C:19 net0106 3.62953e-18 $lvl1=1 $lvl2=2
CC19 C:19 net0106:3 3.59532e-18 $lvl1=1 $lvl2=2
CC20 C:19 net086:26 3.22581e-18 $lvl1=1 $lvl2=2
CC21 C:10 net086:23 2.61389e-18 $lvl1=3 $lvl2=2
CC22 C:10 net086:27 2.61197e-18 $lvl1=3 $lvl2=2
CC23 C:17 net086:36 2.47487e-18 $lvl1=1 $lvl2=1
CC24 C:10 net086:10 2.42705e-18 $lvl1=3 $lvl2=3
CC25 C:16 net086:33 2.19258e-18 $lvl1=2 $lvl2=1
CC26 C:15 net086:33 2.12128e-18 $lvl1=2 $lvl2=1
CC27 C:16 net086:23 1.27418e-18 $lvl1=2 $lvl2=2
CC28 C:16 net086:29 1.19382e-18 $lvl1=2 $lvl2=2
CC29 C:15 net086:27 1.17896e-18 $lvl1=2 $lvl2=2
CC30 C:19 net086:27 1.14933e-18 $lvl1=1 $lvl2=2
CC31 C:17 net086:27 1.09842e-18 $lvl1=1 $lvl2=2
CC32 C:10 net086:33 1.05617e-18 $lvl1=3 $lvl2=1
CC33 C:15 net086:23 9.42602e-19 $lvl1=2 $lvl2=2
CC34 Mmp2:g net086:22 9.40311e-19 $lvl1=3 $lvl2=2
CC35 C:17 net086:29 8.48462e-19 $lvl1=1 $lvl2=2
CC36 C:16 net086:10 8.41531e-19 $lvl1=2 $lvl2=3
CC37 C:19 net086:29 8.40701e-19 $lvl1=1 $lvl2=2
CC38 C:15 net086:29 6.97838e-19 $lvl1=2 $lvl2=2
CC39 C:17 net086:22 6.82531e-19 $lvl1=1 $lvl2=2
CC40 C net086:32 6.39198e-19 $lvl1=1 $lvl2=1
CC41 C net086:29 5.89171e-19 $lvl1=1 $lvl2=2
CC42 C:17 net086:32 5.8576e-19 $lvl1=1 $lvl2=1
CC43 C net086:30 5.276e-19 $lvl1=1 $lvl2=1
CC44 C:17 net086:37 5.00174e-19 $lvl1=1 $lvl2=1
CC45 C:19 net086:34 4.68008e-19 $lvl1=1 $lvl2=1
CC46 C:10 Mmn2:d 4.66932e-19 $lvl1=3 $lvl2=4
CC47 C net086:27 4.66463e-19 $lvl1=1 $lvl2=2
CC48 C:10 net086:12 4.34111e-19 $lvl1=3 $lvl2=3
CC49 C:10 net086:29 4.33262e-19 $lvl1=3 $lvl2=2
CC50 C net086:34 3.81052e-19 $lvl1=1 $lvl2=1
CC51 C:17 net086:30 3.20183e-19 $lvl1=1 $lvl2=1
CC52 C:10 net086:8 3.07356e-19 $lvl1=3 $lvl2=3
CC53 C:16 net086:32 2.65647e-19 $lvl1=2 $lvl2=1
CC54 C net086:36 2.48787e-19 $lvl1=1 $lvl2=1
CC55 C:17 net086:10 2.38148e-19 $lvl1=1 $lvl2=3
CC56 C:19 net086:36 2.36042e-19 $lvl1=1 $lvl2=1
CC57 C:19 net086:37 2.35889e-19 $lvl1=1 $lvl2=1
CC58 Mmp2:g net086:34 2.35179e-19 $lvl1=3 $lvl2=1
CC59 C:15 net086:10 2.17906e-19 $lvl1=2 $lvl2=3
CC60 C:15 net086:32 2.15907e-19 $lvl1=2 $lvl2=1
CC61 C:17 net086:18 2.15683e-19 $lvl1=1 $lvl2=2
CC62 C:15 net086:34 1.91248e-19 $lvl1=2 $lvl2=1
CC63 C:15 net086:30 1.82271e-19 $lvl1=2 $lvl2=1
CC64 Mmp2:g net086:36 1.74769e-19 $lvl1=3 $lvl2=1
CC65 C:10 net086:34 1.74133e-19 $lvl1=3 $lvl2=1
CC66 C net086:37 1.73185e-19 $lvl1=1 $lvl2=1
CC67 C:16 net086:8 1.69286e-19 $lvl1=2 $lvl2=3
CC68 C:19 net086:10 1.57553e-19 $lvl1=1 $lvl2=3
CC69 C:19 net086:33 1.55965e-17 $lvl1=1 $lvl2=1
CC70 C:19 net086:23 5.89917e-18 $lvl1=1 $lvl2=2
CC71 C:17 net086:34 6.43598e-18 $lvl1=1 $lvl2=1
CC72 C:19 net086:30 3.62882e-17 $lvl1=1 $lvl2=1
CC73 Mmn2:g net086:23 6.90082e-17 $lvl1=3 $lvl2=2
CC74 C:19 net086:32 1.02403e-17 $lvl1=1 $lvl2=1
CC75 C net086:33 9.31737e-18 $lvl1=1 $lvl2=1
CC76 C:16 net086:27 5.17135e-18 $lvl1=2 $lvl2=2
CC77 Mmp2:g net086:18 1.29592e-16 $lvl1=3 $lvl2=2
CC78 C:17 net086:33 2.17573e-17 $lvl1=1 $lvl2=1
CC79 C:10 VSS!:1 3.16511e-18 $lvl1=3 $lvl2=2
CC80 C:19 VSS!:1 3.08695e-18 $lvl1=1 $lvl2=2
CC81 C:16 VSS!:1 2.06292e-18 $lvl1=2 $lvl2=2
CC82 Mmn2:g VSS!:1 1.89557e-18 $lvl1=3 $lvl2=2
CC83 C:15 VSS!:1 9.21328e-19 $lvl1=2 $lvl2=2
CC84 C:17 VSS!:15 8.23792e-19 $lvl1=1 $lvl2=1
CC85 C:10 Mmn3:s 8.0028e-19 $lvl1=3 $lvl2=4
CC86 C:19 VSS!:16 5.718e-19 $lvl1=1 $lvl2=1
CC87 C:19 VSS!:8 5.56706e-19 $lvl1=1 $lvl2=2
CC88 Mmn2:g VSS!:8 4.99275e-18 $lvl1=3 $lvl2=2
CC89 C:19 VSS!:15 6.52386e-18 $lvl1=1 $lvl2=1
CC90 C:17 VDD!:15 4.08349e-18 $lvl1=1 $lvl2=2
CC91 C:10 VDD!:15 2.77674e-18 $lvl1=3 $lvl2=2
CC92 Mmp2:g VDD!:15 2.28389e-18 $lvl1=3 $lvl2=2
CC93 C VDD! 1.82461e-18 $lvl1=1 $lvl2=1
CC94 C:16 VDD!:15 1.58977e-18 $lvl1=2 $lvl2=2
CC95 C:17 VDD!:11 1.23756e-18 $lvl1=1 $lvl2=2
CC96 Mmp2:g VDD!:4 1.23619e-18 $lvl1=3 $lvl2=2
CC97 C:16 VDD! 1.15874e-18 $lvl1=2 $lvl2=1
CC98 C:15 VDD!:15 8.00586e-19 $lvl1=2 $lvl2=2
CC99 C:17 VDD!:18 7.32085e-19 $lvl1=1 $lvl2=1
CC100 C:10 Mmp3:s 7.00386e-19 $lvl1=3 $lvl2=4
CC101 Mmp2:g VDD!:3 6.2694e-19 $lvl1=3 $lvl2=2
CC102 C:15 VDD! 4.82783e-19 $lvl1=2 $lvl2=1
CC103 Mmp2:g VDD!:5 7.63598e-18 $lvl1=3 $lvl2=2
CC104 C:10 VDD! 5.66285e-18 $lvl1=3 $lvl2=1
CC105 Mmp2:g VDD!:11 1.31654e-16 $lvl1=3 $lvl2=2
CC106 C:17 VDD! 5.06399e-18 $lvl1=1 $lvl2=1
CC107 C:19 VDD! 6.99438e-18 $lvl1=1 $lvl2=1
ReC28 C:17 C:18 0.259615 $metal1  $L=0.54 $W=0.260000 $SI_W=0.26 $TYPE=10 $DIR=1 $LLX=1.250000 $LLY=1.730000 $URX=1.510000 $URY=2.270000 $lvl=1
ReC29 C:18 C 0.050481 $metal1  $L=0.105 $W=0.260000 $SI_W=0.26 $TYPE=10 $DIR=1 $LLX=1.250000 $LLY=1.625000 $URX=1.510000 $URY=1.730000 $lvl=1
ReC30 C C:19 0.286058 $metal1  $L=0.595 $W=0.260000 $SI_W=0.26 $TYPE=10 $DIR=1 $LLX=1.250000 $LLY=1.030000 $URX=1.510000 $URY=1.625000 $lvl=1
RfC31 C:13 C:14 12.423529 $li  $L=0.165 $W=0.170000 $SI_W=0.17 $TYPE=10 $DIR=0 $LLX=1.395000 $LLY=1.645000 $URX=1.560000 $URY=1.815000 $lvl=2
RfC32 C:14 C:15 1.129412 $li  $L=0.015 $W=1000000 $SI_W=1000000 $TYPE=1,10 $DIR=0 $LLX=1.380000 $LLY=1.645000 $URX=1.395000 $URY=1.815000 $lvl=2
RfC33 C:15 C:16 12.800000 $li  $L=0.17 $W=0.170000 $SI_W=0.17 $TYPE=10 $DIR=0 $LLX=1.295000 $LLY=1.645000 $URX=1.465000 $URY=1.815000 $lvl=2
RgC34 C:8 Mmp2:g 173.519989 $poly  $L=0.54 $W=0.150000 $SI_W=0.15 $TYPE=10 $DIR=1 $LLX=1.260000 $LLY=3.355000 $URX=1.410000 $URY=3.895000 $lvl=3
RgC35 Mmp2:g C:9 469.191284 $poly  $L=1.46 $W=0.150000 $SI_W=0.15 $TYPE=10 $DIR=1 $LLX=1.260000 $LLY=1.894500 $URX=1.410000 $URY=3.354500 $lvl=3
RgC36 C:9 C:10 38.857975 $poly  $L=0.1645 $W=0.270000 $SI_W=0.27 $TYPE=10 $DIR=1 $LLX=1.260000 $LLY=1.730000 $URX=1.530000 $URY=1.894500 $lvl=3
RgC37 C:10 C:11 29.410927 $poly  $L=0.1645 $W=0.270000 $SI_W=0.27 $TYPE=10 $DIR=1 $LLX=1.260000 $LLY=1.565500 $URX=1.530000 $URY=1.730000 $lvl=3
RgC38 C:11 Mmn2:g 245.061295 $poly  $L=0.7625 $W=0.150000 $SI_W=0.15 $TYPE=10 $DIR=1 $LLX=1.260000 $LLY=0.802500 $URX=1.410000 $URY=1.565000 $lvl=3
RgC39 Mmn2:g C:12 116.483322 $poly  $L=0.3625 $W=0.150000 $SI_W=0.15 $TYPE=10 $DIR=1 $LLX=1.260000 $LLY=0.440000 $URX=1.410000 $URY=0.802500 $lvl=3
RjC40 C:15 C:18 152.000000 $mcon  $L=0.17 $W=0.17 $A=0.0289 $VC=0 $SAVL=0 $SAVC=0 $SI_A=0.0289 $COVER_DIR=0 $LLX=0.000000 $LLY=0.000000 $URX=0.170000 $URY=0.170000 $lvl=6
RiC41 C:10 C:14 15.000000 $licon  $L=0.17 $W=0.17 $A=0.0289 $VC=0 $SAVL=0 $SAVC=0 $SI_A=0.0289 $COVER_DIR=0 $LLX=0.000000 $LLY=0.000000 $URX=0.170000 $URY=0.170000 $lvl=7
*
*|NET net0106 2.65836e-16
*|I (Mmn2:s Mmn2 s X 0 1.2595 0.8025) // $llx=1.2595 $lly=0.8025 $urx=1.2595 $ury=0.8025 $lvl=4
*|I (Mmn1:d Mmn1 d X 0 0.9805 0.8025) // $llx=0.9805 $lly=0.8025 $urx=0.9805 $ury=0.8025 $lvl=4
*|S (net0106 1.1200 1.0145) // $llx=1.1200 $lly=1.0145 $urx=1.1200 $ury=1.0145 $lvl=2
*|S (net0106:3 1.1200 0.8000) // $llx=1.1200 $lly=0.8000 $urx=1.1200 $ury=0.8000 $lvl=2
*|S (net0106:4 1.1200 0.5900) // $llx=1.1200 $lly=0.5900 $urx=1.1200 $ury=0.5900 $lvl=2
CI1 Mmn2:s VSS! 1.73602e-18 $lvl=4
CI2 net0106:3 VSS! 1.23661e-17 $lvl=2
CI3 net0106:4 VSS! 2.20799e-18 $lvl=2
CI4 net0106 VSS! 5.99488e-18 $lvl=2
CI5 net0106:4 VSS!:5 1.23634e-18 $lvl1=2 $lvl2=2
CI6 Mmn2:s VSS!:8 1.21242e-18 $lvl1=4 $lvl2=2
CI7 net0106:3 VSS!:5 9.93066e-19 $lvl1=2 $lvl2=2
CI8 net0106:3 VSS!:13 7.75761e-19 $lvl1=2 $lvl2=2
CI9 net0106:3 VSS!:1 7.44031e-19 $lvl1=2 $lvl2=2
CI10 net0106:3 VSS!:6 5.86582e-19 $lvl1=2 $lvl2=4
CI11 net0106 VSS!:1 4.16735e-19 $lvl1=2 $lvl2=2
CI12 net0106 VSS!:15 2.83628e-19 $lvl1=2 $lvl2=1
CI13 net0106:4 VSS!:6 2.77698e-19 $lvl1=2 $lvl2=4
CI14 net0106 VSS!:13 2.59213e-19 $lvl1=2 $lvl2=2
CI15 net0106:4 VSS!:8 5.9491e-18 $lvl1=2 $lvl2=2
CI16 net0106:4 VSS!:15 2.74711e-18 $lvl1=2 $lvl2=1
CI17 net0106:3 VSS!:8 5.66986e-18 $lvl1=2 $lvl2=2
CI18 net0106:3 VSS!:15 2.32926e-18 $lvl1=2 $lvl2=1
RfI136 net0106 net0106:3 16.150589 $li  $L=0.2145 $W=0.170000 $SI_W=0.17 $TYPE=10 $DIR=1 $LLX=1.035000 $LLY=0.800000 $URX=1.205000 $URY=1.014500 $lvl=2
RfI137 net0106:3 net0106:4 15.811765 $li  $L=0.21 $W=0.170000 $SI_W=0.17 $TYPE=10 $DIR=1 $LLX=1.035000 $LLY=0.590000 $URX=1.205000 $URY=0.800000 $lvl=2
RhI138 Mmn2:s net0106:3 15.000000 $licon_diff  $L=0.17 $W=0.17 $A=0.0289 $VC=0 $SAVL=0 $SAVC=0 $SI_A=0.0289 $COVER_DIR=0 $LLX=0.000000 $LLY=0.000000 $URX=0.170000 $URY=0.170000 $lvl=5
RmwI139 Mmn1:d Mmn2:s 0.001000 $diff $W=1000000 $SI_W=1000000 $TYPE=1 $DIR=0
*
*|NET B 8.40895e-16
*|P (B X 0 0.9350 2.2950) // $llx=0.9350 $lly=2.2950 $urx=0.9350 $ury=2.2950 $lvl=1
*|I (Mmp1:g Mmp1 g X 0 0.9050 3.3550) // $llx=0.9050 $lly=3.3550 $urx=0.9050 $ury=3.3550 $lvl=3
*|I (Mmn1:g Mmn1 g X 0 0.9050 0.8025) // $llx=0.9050 $lly=0.8025 $urx=0.9050 $ury=0.8025 $lvl=3
*|S (B:8 0.9050 3.8950) // $llx=0.9050 $lly=3.8950 $urx=0.9050 $ury=3.8950 $lvl=3
*|S (B:9 0.9050 2.4000) // $llx=0.9050 $lly=2.4000 $urx=0.9050 $ury=2.4000 $lvl=3
*|S (B:10 0.9050 2.2350) // $llx=0.9050 $lly=2.2350 $urx=0.9050 $ury=2.2350 $lvl=3
*|S (B:11 0.9050 0.4400) // $llx=0.9050 $lly=0.4400 $urx=0.9050 $ury=0.4400 $lvl=3
*|S (B:12 1.0900 2.4000) // $llx=1.0900 $lly=2.4000 $urx=1.0900 $ury=2.4000 $lvl=2
*|S (B:13 0.9200 2.4000) // $llx=0.9200 $lly=2.4000 $urx=0.9200 $ury=2.4000 $lvl=2
*|S (B:14 0.9050 2.4000) // $llx=0.9050 $lly=2.4000 $urx=0.9050 $ury=2.4000 $lvl=2
*|S (B:15 0.5250 2.4000) // $llx=0.5250 $lly=2.4000 $urx=0.5250 $ury=2.4000 $lvl=2
*|S (B:16 0.9200 2.9450) // $llx=0.9200 $lly=2.9450 $urx=0.9200 $ury=2.9450 $lvl=1
*|S (B:17 0.9200 2.4000) // $llx=0.9200 $lly=2.4000 $urx=0.9200 $ury=2.4000 $lvl=1
*|S (B:18 0.9200 1.7050) // $llx=0.9200 $lly=1.7050 $urx=0.9200 $ury=1.7050 $lvl=1
CB1 Mmn1:g VSS! 1.52793e-18 $lvl=3
CB2 B:8 VSS! 8.32452e-19 $lvl=3
CB3 B:16 VSS! 5.36118e-18 $lvl=1
CB4 B:18 VSS! 6.95976e-18 $lvl=1
CB5 B:12 VSS! 3.04342e-18 $lvl=2
CB6 B:15 VSS! 4.26542e-18 $lvl=2
CB7 B:13 VSS! 2.04454e-18 $lvl=2
CB8 B:9 VSS! 8.20087e-18 $lvl=3
CB9 B VSS! 3.81713e-18 $lvl=1
CB10 Mmn1:g net0106 7.68911e-19 $lvl1=3 $lvl2=2
CB11 Mmn1:g net0106:4 6.22711e-19 $lvl1=3 $lvl2=2
CB12 Mmn1:g net0106:3 6.64758e-17 $lvl1=3 $lvl2=2
CB13 Mmn1:g net0102 7.84822e-19 $lvl1=3 $lvl2=2
CB14 Mmn1:g net0102:4 6.46284e-19 $lvl1=3 $lvl2=2
CB15 Mmn1:g net0102:3 6.51435e-17 $lvl1=3 $lvl2=2
CB16 B:15 net086:17 2.18514e-18 $lvl1=2 $lvl2=2
CB17 B:16 net086:33 2.01022e-18 $lvl1=1 $lvl2=1
CB18 B:9 net086:22 1.93862e-18 $lvl1=3 $lvl2=2
CB19 B net086:36 1.7434e-18 $lvl1=1 $lvl2=1
CB20 B:12 net086:22 1.71142e-18 $lvl1=2 $lvl2=2
CB21 B:9 net086:18 1.63395e-18 $lvl1=3 $lvl2=2
CB22 B:15 net086:13 1.62705e-18 $lvl1=2 $lvl2=2
CB23 B:18 net086:33 1.62369e-18 $lvl1=1 $lvl2=1
CB24 B net086:37 1.60226e-18 $lvl1=1 $lvl2=1
CB25 B:16 net086:17 1.5045e-18 $lvl1=1 $lvl2=2
CB26 B:15 net086:37 1.50188e-18 $lvl1=2 $lvl2=1
CB27 B:16 net086:18 1.38007e-18 $lvl1=1 $lvl2=2
CB28 B:13 net086:22 1.358e-18 $lvl1=2 $lvl2=2
CB29 B:18 net086:37 1.31354e-18 $lvl1=1 $lvl2=1
CB30 B net086:34 1.25284e-18 $lvl1=1 $lvl2=1
CB31 B:16 net086:21 1.24519e-18 $lvl1=1 $lvl2=2
CB32 B:8 net086:22 1.02441e-18 $lvl1=3 $lvl2=2
CB33 B:18 net086:36 9.88132e-19 $lvl1=1 $lvl2=1
CB34 B:18 net086:34 9.00496e-19 $lvl1=1 $lvl2=1
CB35 B:16 net086:13 8.98345e-19 $lvl1=1 $lvl2=2
CB36 Mmn1:g net086:23 8.92833e-19 $lvl1=3 $lvl2=2
CB37 B net086:33 8.63302e-19 $lvl1=1 $lvl2=1
CB38 B:9 net086:13 7.55244e-19 $lvl1=3 $lvl2=2
CB39 B:9 net086:17 7.3308e-19 $lvl1=3 $lvl2=2
CB40 B:9 Mmp2:d 7.01882e-19 $lvl1=3 $lvl2=4
CB41 B:18 net086:30 6.94772e-19 $lvl1=1 $lvl2=1
CB42 B:12 net086:18 6.52999e-19 $lvl1=2 $lvl2=2
CB43 B:8 net086:13 5.47148e-19 $lvl1=3 $lvl2=2
CB44 B:15 net086:22 5.35623e-19 $lvl1=2 $lvl2=2
CB45 B:13 net086:36 5.10092e-19 $lvl1=2 $lvl2=1
CB46 B:12 net086:34 4.6576e-19 $lvl1=2 $lvl2=1
CB47 B:12 net086:33 4.65366e-19 $lvl1=2 $lvl2=1
CB48 B:13 net086:18 4.52974e-19 $lvl1=2 $lvl2=2
CB49 B:16 net086:16 4.36607e-19 $lvl1=1 $lvl2=2
CB50 B:15 net086:36 3.7705e-19 $lvl1=2 $lvl2=1
CB51 B:18 net086:32 3.72957e-19 $lvl1=1 $lvl2=1
CB52 B:13 net086:37 3.52535e-19 $lvl1=2 $lvl2=1
CB53 B:12 net086:36 3.46722e-19 $lvl1=2 $lvl2=1
CB54 B:9 net086:34 3.33057e-19 $lvl1=3 $lvl2=1
CB55 B:9 net086:37 3.13159e-19 $lvl1=3 $lvl2=1
CB56 B:13 net086:34 3.08471e-19 $lvl1=2 $lvl2=1
CB57 B net086:17 2.8947e-19 $lvl1=1 $lvl2=2
CB58 B:13 net086:17 2.84589e-19 $lvl1=2 $lvl2=2
CB59 B:15 net086:18 2.74217e-19 $lvl1=2 $lvl2=2
CB60 B:9 Mmp0:d 2.66488e-19 $lvl1=3 $lvl2=4
CB61 B:13 net086:33 2.5389e-19 $lvl1=2 $lvl2=1
CB62 B:18 net086:17 2.5249e-19 $lvl1=1 $lvl2=2
CB63 B:18 net086:23 2.52438e-19 $lvl1=1 $lvl2=2
CB64 B:9 net086:33 2.42522e-19 $lvl1=3 $lvl2=1
CB65 B:8 net086:17 2.32865e-19 $lvl1=3 $lvl2=2
CB66 B:9 net086:36 2.22295e-19 $lvl1=3 $lvl2=1
CB67 B:15 Mmp0:d 2.15799e-19 $lvl1=2 $lvl2=4
CB68 B net086:22 2.08577e-19 $lvl1=1 $lvl2=2
CB69 B:18 net086:13 2.05396e-19 $lvl1=1 $lvl2=2
CB70 B:13 net086:13 2.0376e-19 $lvl1=2 $lvl2=2
CB71 B:15 net086:16 1.96492e-19 $lvl1=2 $lvl2=2
CB72 B:16 net086:30 1.92603e-19 $lvl1=1 $lvl2=1
CB73 B net086:13 1.85097e-19 $lvl1=1 $lvl2=2
CB74 B:16 net086:32 1.65352e-19 $lvl1=1 $lvl2=1
CB75 B:16 net086:36 3.76848e-17 $lvl1=1 $lvl2=1
CB76 B:16 net086:22 4.40289e-18 $lvl1=1 $lvl2=2
CB77 B:16 net086:37 1.22126e-17 $lvl1=1 $lvl2=1
CB78 B:16 net086:34 5.01808e-18 $lvl1=1 $lvl2=1
CB79 B:8 net086:18 1.30693e-16 $lvl1=3 $lvl2=2
CB80 B:18 VSS!:15 1.39052e-18 $lvl1=1 $lvl2=1
CB81 Mmn1:g VSS!:13 8.44839e-19 $lvl1=3 $lvl2=2
CB82 Mmn1:g VSS!:8 5.74315e-18 $lvl1=3 $lvl2=2
CB83 B VDD! 3.54568e-18 $lvl1=1 $lvl2=1
CB84 B:15 VDD!:3 3.52436e-18 $lvl1=2 $lvl2=2
CB85 B:9 VDD!:3 3.39862e-18 $lvl1=3 $lvl2=2
CB86 B:16 VDD!:18 2.30646e-18 $lvl1=1 $lvl2=1
CB87 B:16 VDD!:11 2.21137e-18 $lvl1=1 $lvl2=2
CB88 B:9 VDD!:15 1.88559e-18 $lvl1=3 $lvl2=2
CB89 B:12 VDD!:15 1.75576e-18 $lvl1=2 $lvl2=2
CB90 B:13 VDD!:3 1.57995e-18 $lvl1=2 $lvl2=2
CB91 B:9 VDD!:11 1.28051e-18 $lvl1=3 $lvl2=2
CB92 B:16 VDD!:15 1.24944e-18 $lvl1=1 $lvl2=2
CB93 B:12 VDD! 1.23736e-18 $lvl1=2 $lvl2=1
CB94 B:13 VDD! 1.20046e-18 $lvl1=2 $lvl2=1
CB95 B:12 VDD!:11 1.17882e-18 $lvl1=2 $lvl2=2
CB96 B:8 VDD!:5 1.11169e-18 $lvl1=3 $lvl2=2
CB97 B:8 VDD!:11 9.84088e-19 $lvl1=3 $lvl2=2
CB98 B:12 VDD!:3 8.74934e-19 $lvl1=2 $lvl2=2
CB99 B VDD!:18 7.45038e-19 $lvl1=1 $lvl2=1
CB100 B:16 VDD!:19 6.90187e-19 $lvl1=1 $lvl2=1
CB101 B:18 VDD!:18 6.65002e-19 $lvl1=1 $lvl2=1
CB102 B:9 Mmp1:s 6.45741e-19 $lvl1=3 $lvl2=4
CB103 B:13 VDD!:15 5.25653e-19 $lvl1=2 $lvl2=2
CB104 B:13 VDD!:11 4.31143e-19 $lvl1=2 $lvl2=2
CB105 B VDD!:11 4.00204e-19 $lvl1=1 $lvl2=2
CB106 B VDD!:3 3.55901e-19 $lvl1=1 $lvl2=2
CB107 B VDD!:15 3.55032e-19 $lvl1=1 $lvl2=2
CB108 B:8 VDD!:15 3.30925e-19 $lvl1=3 $lvl2=2
CB109 B:16 VDD! 8.37394e-18 $lvl1=1 $lvl2=1
CB110 B:18 VDD! 7.23509e-18 $lvl1=1 $lvl2=1
CB111 B:15 VDD! 6.82835e-18 $lvl1=2 $lvl2=1
CB112 B:9 VDD! 1.7481e-17 $lvl1=3 $lvl2=1
CB113 B:8 VDD!:4 8.37621e-18 $lvl1=3 $lvl2=2
CB114 B:8 VDD!:3 1.27627e-16 $lvl1=3 $lvl2=2
CB115 B:16 VDD!:3 6.42898e-18 $lvl1=1 $lvl2=2
CB116 B:18 C:15 3.70746e-18 $lvl1=1 $lvl2=2
CB117 B:18 C:16 3.42823e-18 $lvl1=1 $lvl2=2
CB118 B:9 C:10 3.21104e-18 $lvl1=3 $lvl2=3
CB119 B:13 C:17 2.79626e-18 $lvl1=2 $lvl2=1
CB120 B:12 C:17 2.47892e-18 $lvl1=2 $lvl2=1
CB121 B:9 Mmp2:g 1.63783e-18 $lvl1=3 $lvl2=3
CB122 B:9 C:16 1.54793e-18 $lvl1=3 $lvl2=2
CB123 B:12 C:10 1.53426e-18 $lvl1=2 $lvl2=3
CB124 B:12 C:16 1.21884e-18 $lvl1=2 $lvl2=2
CB125 B:18 C:10 1.19925e-18 $lvl1=1 $lvl2=3
CB126 B:9 C:17 9.95329e-19 $lvl1=3 $lvl2=1
CB127 Mmn1:g C:10 8.74426e-19 $lvl1=3 $lvl2=3
CB128 B:13 C:16 8.53679e-19 $lvl1=2 $lvl2=2
CB129 B:12 C:15 7.22072e-19 $lvl1=2 $lvl2=2
CB130 B:13 C:10 6.27744e-19 $lvl1=2 $lvl2=3
CB131 B:9 C:15 5.90931e-19 $lvl1=3 $lvl2=2
CB132 B:13 C:15 5.83229e-19 $lvl1=2 $lvl2=2
CB133 B:15 C:16 5.11774e-19 $lvl1=2 $lvl2=2
CB134 B:15 C:10 4.48309e-19 $lvl1=2 $lvl2=3
CB135 B:16 C:19 4.08063e-19 $lvl1=1 $lvl2=1
CB136 B:12 Mmp2:g 3.72041e-19 $lvl1=2 $lvl2=3
CB137 B C 3.58182e-19 $lvl1=1 $lvl2=1
CB138 Mmn1:g C:16 3.53912e-19 $lvl1=3 $lvl2=2
CB139 B:18 C:19 1.20349e-17 $lvl1=1 $lvl2=1
CB140 B C:17 1.07665e-17 $lvl1=1 $lvl2=1
CB141 B:18 C:17 3.75683e-17 $lvl1=1 $lvl2=1
CB142 B:18 C 1.65527e-17 $lvl1=1 $lvl2=1
CB143 B:16 C:17 6.78683e-18 $lvl1=1 $lvl2=1