*
*|DSPF 1.5
*
*|DATE "Wed Jan  8 23:48:14 2025"
*|VENDOR "Cadence Design Systems"
*|PROGRAM "Cadence Quantus Extraction"
*|VERSION "22.1.0-p089 Linux 64 bit - (Thu Jan 19 11:47:08 PST 2023)"
*|DESIGN AND4X1_HS
*|DIVIDER /
*|DELIMITER :
*|DeviceFingerDelim "@"
*|BUSBIT []
*|GLOBAL_TEMPERATURE 25
*|OPERATING_TEMPERATURE 25

** *VIA_COVERAGE_CODES
** *index FF FS FP FU SF SS SP SU PF PS PP PU UF US UP UU X_by_Y
** * "FF" stands for Full landing and Full coverage
** *0 0 0 0 0 0 0 0 0 0 0 0 0 0 0 0 0
** *1 0 0 0 0 0 0 0 0 0 0 0 0 0 0 0 1 1x1
** *2 0 0 0 0 0 0 0 0 0 0 0 0 0 0 1 0 1x1
** *3 0 0 0 0 0 0 0 0 0 0 0 0 0 1 0 0 1x1
** *4 0 0 0 0 0 0 0 0 0 0 0 0 1 0 0 0 1x1
** *5 0 0 0 0 0 0 0 0 0 0 0 1 0 0 0 0 1x1
** *6 0 0 0 0 0 0 0 0 0 0 1 0 0 0 0 0 1x1
** *7 0 0 0 0 0 0 0 0 0 1 0 0 0 0 0 0 1x1
** *8 0 0 0 0 0 0 0 0 1 0 0 0 0 0 0 0 1x1
** *9 0 0 0 0 0 0 0 1 0 0 0 0 0 0 0 0 1x1
** *10 0 0 0 0 0 0 1 0 0 0 0 0 0 0 0 0 1x1
** *11 0 0 0 0 0 1 0 0 0 0 0 0 0 0 0 0 1x1
** *12 0 0 0 0 1 0 0 0 0 0 0 0 0 0 0 0 1x1
** *13 0 0 0 1 0 0 0 0 0 0 0 0 0 0 0 0 1x1
** *14 0 0 1 0 0 0 0 0 0 0 0 0 0 0 0 0 1x1
** *15 0 1 0 0 0 0 0 0 0 0 0 0 0 0 0 0 1x1
** *16 1 0 0 0 0 0 0 0 0 0 0 0 0 0 0 0 1x1

** *RESISTOR_TYPES
** *1 SHORTING_ELEMENT
** *2 PRES_NG
** *3 PRES_PG
** *4 PRES_NF
** *5 PRES_PF
** *6 TCN_NDIFF
** *7 TCN_PDIFF
** *8 TCN_NFIELD
** *9 TCN_PFIELD
** *10 QUALITY_EXTRACTED
** *11 GCNLAND
** *12 TCNLAND
** *13 DUMMY
** *14 RSD
** *15 BRIDGE

** *RESISTOR_CURRENT_DIRECTION
** *0 HORIZONTAL
** *1 VERTICAL
** *2 45 DEGREE

** QRC_TECH_DIR /vols/wfo_devel/projects/reference_SKY130/tech/sky130_release_0.0.4/quantus/extraction/typical 
** HIERARCHICAL_SPLIT_PINS_DELIMITER '%'
** caps2d version: 10
*
.SUBCKT  AND4X1_HS A B C D Y
*
*Net Section
*
*|GROUND_NET VSS!
*
*LAYER_MAP
*0 none
*1 metal1
*2 li
*3 poly
*4 diff
*5 licon_diff
*6 mcon
*7 licon
*8 FOX

*|NET D 8.0271e-16
*|P (D X 0 0.4750 1.8050) // $llx=0.4750 $lly=1.8050 $urx=0.4750 $ury=1.8050 $lvl=1
*|I (Mmp3:g Mmp3 g X 0 0.4750 3.3550) // $llx=0.4750 $lly=3.3550 $urx=0.4750 $ury=3.3550 $lvl=3
*|I (Mmn3:g Mmn3 g X 0 0.4750 0.8025) // $llx=0.4750 $lly=0.8025 $urx=0.4750 $ury=0.8025 $lvl=3
*|S (D:8 0.4750 3.8950) // $llx=0.4750 $lly=3.8950 $urx=0.4750 $ury=3.8950 $lvl=3
*|S (D:9 0.4750 1.3500) // $llx=0.4750 $lly=1.3500 $urx=0.4750 $ury=1.3500 $lvl=3
*|S (D:10 0.4750 1.1850) // $llx=0.4750 $lly=1.1850 $urx=0.4750 $ury=1.1850 $lvl=3
*|S (D:11 0.4750 0.4400) // $llx=0.4750 $lly=0.4400 $urx=0.4750 $ury=0.4400 $lvl=3
*|S (D:12 0.6400 1.3500) // $llx=0.6400 $lly=1.3500 $urx=0.6400 $ury=1.3500 $lvl=2
*|S (D:13 0.4750 1.3500) // $llx=0.4750 $lly=1.3500 $urx=0.4750 $ury=1.3500 $lvl=2
*|S (D:14 0.4650 1.3500) // $llx=0.4650 $lly=1.3500 $urx=0.4650 $ury=1.3500 $lvl=2
*|S (D:15 0.2950 1.3500) // $llx=0.2950 $lly=1.3500 $urx=0.2950 $ury=1.3500 $lvl=2
*|S (D:16 0.4600 2.2950) // $llx=0.4600 $lly=2.2950 $urx=0.4600 $ury=2.2950 $lvl=1
*|S (D:17 0.4650 1.3500) // $llx=0.4650 $lly=1.3500 $urx=0.4650 $ury=1.3500 $lvl=1
*|S (D:18 0.4600 1.0550) // $llx=0.4600 $lly=1.0550 $urx=0.4600 $ury=1.0550 $lvl=1
CD1 Mmn3:g VSS! 2.06044e-18 $lvl=3
CD2 D:8 VSS! 1.5372e-18 $lvl=3
CD3 D:17 VSS! 7.6732e-18 $lvl=1
CD4 D:18 VSS! 3.57757e-18 $lvl=1
CD5 D:12 VSS! 7.55553e-18 $lvl=2
CD6 D:14 VSS! 3.68683e-18 $lvl=2
CD7 D:9 VSS! 2.0641e-17 $lvl=3
CD8 D VSS! 9.92113e-18 $lvl=1
CD9 D:9 Mmn2:d 1.11858e-18 $lvl1=3 $lvl2=4
CD10 D:18 net132:3 1.06884e-18 $lvl1=1 $lvl2=2
CD11 D:18 net132 1.04998e-18 $lvl1=1 $lvl2=2
CD12 Mmn3:g net132:4 6.94431e-19 $lvl1=3 $lvl2=2
CD13 Mmn3:g net132 5.08649e-19 $lvl1=3 $lvl2=2
CD14 D:17 net132 4.9085e-19 $lvl1=1 $lvl2=2
CD15 D:9 net132:3 4.06165e-18 $lvl1=3 $lvl2=2
CD16 D:9 net132 2.74686e-18 $lvl1=3 $lvl2=2
CD17 D:14 net132 2.62828e-18 $lvl1=2 $lvl2=2
CD18 Mmn3:g net132:3 6.56631e-17 $lvl1=3 $lvl2=2
CD19 D:14 net132:3 1.38163e-18 $lvl1=2 $lvl2=2
CD20 D:12 net132 4.21514e-18 $lvl1=2 $lvl2=2
CD21 D:12 net132:3 1.951e-18 $lvl1=2 $lvl2=2
CD22 D:14 net116:13 3.69949e-18 $lvl1=2 $lvl2=2
CD23 D:18 net116:14 3.24981e-18 $lvl1=1 $lvl2=2
CD24 D net116:42 2.6987e-18 $lvl1=1 $lvl2=1
CD25 D:14 net116:31 2.52359e-18 $lvl1=2 $lvl2=1
CD26 D:14 net116:14 1.87357e-18 $lvl1=2 $lvl2=2
CD27 D:12 net116:31 1.86221e-18 $lvl1=2 $lvl2=1
CD28 D:9 Mmn3:d 1.69964e-18 $lvl1=3 $lvl2=4
CD29 D:17 net116:13 1.48447e-18 $lvl1=1 $lvl2=2
CD30 D:18 net116:13 1.46861e-18 $lvl1=1 $lvl2=2
CD31 D:8 net116:22 1.12726e-18 $lvl1=3 $lvl2=2
CD32 D:12 net116:14 1.10728e-18 $lvl1=2 $lvl2=2
CD33 D net116:13 1.05886e-18 $lvl1=1 $lvl2=2
CD34 Mmn3:g net116:17 1.00253e-18 $lvl1=3 $lvl2=2
CD35 D:17 net116:14 9.15516e-19 $lvl1=1 $lvl2=2
CD36 D:17 net116:33 7.72986e-19 $lvl1=1 $lvl2=1
CD37 D net116:22 7.68728e-19 $lvl1=1 $lvl2=2
CD38 D net116:33 6.34481e-19 $lvl1=1 $lvl2=1
CD39 D:9 net116:31 6.13873e-19 $lvl1=3 $lvl2=1
CD40 D:18 net116:33 5.43107e-19 $lvl1=1 $lvl2=1
CD41 D net116:40 5.3282e-19 $lvl1=1 $lvl2=1
CD42 D net116:21 5.07563e-19 $lvl1=1 $lvl2=2
CD43 D:9 net116:14 4.82325e-19 $lvl1=3 $lvl2=2
CD44 D:17 net116:42 4.70288e-19 $lvl1=1 $lvl2=1
CD45 D net116:14 4.5978e-19 $lvl1=1 $lvl2=2
CD46 D net116:37 3.27663e-19 $lvl1=1 $lvl2=1
CD47 Mmn3:g net116:14 2.70108e-19 $lvl1=3 $lvl2=2
CD48 D net116:19 2.66333e-19 $lvl1=1 $lvl2=2
CD49 D net116:36 2.4099e-19 $lvl1=1 $lvl2=1
CD50 Mmn3:g net116:31 2.26108e-19 $lvl1=3 $lvl2=1
CD51 D:12 Mmn3:d 2.21097e-19 $lvl1=2 $lvl2=4
CD52 D:12 net116:17 1.91578e-19 $lvl1=2 $lvl2=2
CD53 D net116:34 1.71755e-19 $lvl1=1 $lvl2=1
CD54 D:18 net116:31 5.6095e-17 $lvl1=1 $lvl2=1
CD55 Mmn3:g net116:13 6.87686e-17 $lvl1=3 $lvl2=2
CD56 D:12 net116:13 6.66278e-18 $lvl1=2 $lvl2=2
CD57 D net116:31 4.1129e-18 $lvl1=1 $lvl2=1
CD58 D:8 net116:21 1.29344e-16 $lvl1=3 $lvl2=2
CD59 D:9 net116:13 8.44629e-18 $lvl1=3 $lvl2=2
CD60 D:17 net116:31 1.21245e-17 $lvl1=1 $lvl2=1
CD61 D VSS!:10 2.0566e-18 $lvl1=1 $lvl2=1
CD62 D:17 VSS!:10 1.63291e-18 $lvl1=1 $lvl2=1
CD63 D:17 VSS!:11 1.13249e-18 $lvl1=1 $lvl2=1
CD64 D:18 VSS!:10 1.09197e-18 $lvl1=1 $lvl2=1
CD65 D VSS!:11 8.84667e-19 $lvl1=1 $lvl2=1
CD66 D:18 VSS!:11 5.20483e-19 $lvl1=1 $lvl2=1
CD67 Mmn3:g VSS!:5 4.95601e-18 $lvl1=3 $lvl2=2
CD68 D VDD!:19 1.6795e-18 $lvl1=1 $lvl2=1
CD69 D VDD!:20 1.45659e-18 $lvl1=1 $lvl2=1
CD70 D:8 VDD!:6 1.36398e-18 $lvl1=3 $lvl2=2
CD71 D:14 VDD! 1.30216e-18 $lvl1=2 $lvl2=1
CD72 D:8 VDD!:9 6.29907e-19 $lvl1=3 $lvl2=2
CD73 D:17 VDD!:1 5.20076e-19 $lvl1=1 $lvl2=2
CD74 D:17 VDD!:19 4.01176e-19 $lvl1=1 $lvl2=1
CD75 D:12 VDD!:1 3.63934e-19 $lvl1=2 $lvl2=2
CD76 D:9 VDD!:1 3.55194e-19 $lvl1=3 $lvl2=2
CD77 D:9 VDD! 7.0129e-18 $lvl1=3 $lvl2=1
CD78 D VDD!:1 4.40438e-18 $lvl1=1 $lvl2=2
CD79 D:8 VDD!:4 6.96212e-18 $lvl1=3 $lvl2=2
CD80 D:17 VDD! 1.13341e-17 $lvl1=1 $lvl2=1
CD81 D:18 VDD! 4.8528e-18 $lvl1=1 $lvl2=1
CD82 D VDD! 2.61906e-17 $lvl1=1 $lvl2=1
CD83 D:12 VDD! 4.88868e-18 $lvl1=2 $lvl2=1
CD84 D:8 VDD!:1 1.31286e-16 $lvl1=3 $lvl2=2
ReD38 D:16 D 0.235577 $metal1  $L=0.49 $W=0.260000 $SI_W=0.26 $TYPE=10 $DIR=1 $LLX=0.330000 $LLY=1.805000 $URX=0.590000 $URY=2.295000 $lvl=1
ReD39 D D:17 0.218750 $metal1  $L=0.455 $W=0.260000 $SI_W=0.26 $TYPE=10 $DIR=1 $LLX=0.330000 $LLY=1.350000 $URX=0.590000 $URY=1.805000 $lvl=1
ReD40 D:17 D:18 0.141827 $metal1  $L=0.295 $W=0.260000 $SI_W=0.26 $TYPE=10 $DIR=1 $LLX=0.330000 $LLY=1.055000 $URX=0.590000 $URY=1.350000 $lvl=1
RfD41 D:12 D:13 12.423529 $li  $L=0.165 $W=0.170000 $SI_W=0.17 $TYPE=10 $DIR=0 $LLX=0.475000 $LLY=1.265000 $URX=0.640000 $URY=1.435000 $lvl=2
RfD42 D:13 D:14 0.752941 $li  $L=0.01 $W=1000000 $SI_W=1000000 $TYPE=1,10 $DIR=0 $LLX=0.465000 $LLY=1.265000 $URX=0.475000 $URY=1.435000 $lvl=2
RfD43 D:14 D:15 12.800000 $li  $L=0.17 $W=0.170000 $SI_W=0.17 $TYPE=10 $DIR=0 $LLX=0.380000 $LLY=1.265000 $URX=0.550000 $URY=1.435000 $lvl=2
RgD44 D:8 Mmp3:g 173.519989 $poly  $L=0.54 $W=0.150000 $SI_W=0.15 $TYPE=10 $DIR=1 $LLX=0.400000 $LLY=3.355000 $URX=0.550000 $URY=3.895000 $lvl=3
RgD45 Mmp3:g D:9 625.432434 $poly  $L=2.005 $W=0.150000 $SI_W=0.15 $TYPE=10 $DIR=1 $LLX=0.400000 $LLY=1.350000 $URX=0.550000 $URY=3.355000 $lvl=3
RgD46 D:9 D:10 34.134449 $poly  $L=0.1645 $W=0.270000 $SI_W=0.27 $TYPE=10 $DIR=1 $LLX=0.340000 $LLY=1.185500 $URX=0.610000 $URY=1.350000 $lvl=3
RgD47 D:10 Mmn3:g 122.954628 $poly  $L=0.3825 $W=0.150000 $SI_W=0.15 $TYPE=10 $DIR=1 $LLX=0.400000 $LLY=0.802500 $URX=0.550000 $URY=1.185000 $lvl=3
RgD48 Mmn3:g D:11 116.483322 $poly  $L=0.3625 $W=0.150000 $SI_W=0.15 $TYPE=10 $DIR=1 $LLX=0.400000 $LLY=0.440000 $URX=0.550000 $URY=0.802500 $lvl=3
RjD49 D:14 D:17 152.000000 $mcon  $L=0.17 $W=0.17 $A=0.0289 $VC=0 $SAVL=0 $SAVC=0 $SI_A=0.0289 $COVER_DIR=0 $LLX=0.000000 $LLY=0.000000 $URX=0.170000 $URY=0.170000 $lvl=6
RiD50 D:9 D:13 15.000000 $licon  $L=0.17 $W=0.17 $A=0.0289 $VC=0 $SAVL=0 $SAVC=0 $SI_A=0.0289 $COVER_DIR=0 $LLX=0.000000 $LLY=0.000000 $URX=0.170000 $URY=0.170000 $lvl=7
*
*|NET Y 1.44121e-15
*|P (Y X 0 2.7650 1.8250) // $llx=2.7650 $lly=1.8250 $urx=2.7650 $ury=1.8250 $lvl=1
*|I (Mmp4:d Mmp4 d X 0 2.3305 3.0150) // $llx=2.3305 $lly=3.0150 $urx=2.3305 $ury=3.0150 $lvl=4
*|I (Mmn4:d Mmn4 d X 0 2.3305 0.9700) // $llx=2.3305 $lly=0.9700 $urx=2.3305 $ury=0.9700 $lvl=4
*|S (Y:1 2.4700 3.7450) // $llx=2.4700 $lly=3.7450 $urx=2.4700 $ury=3.7450 $lvl=2
*|S (Y:2 2.4700 3.3850) // $llx=2.4700 $lly=3.3850 $urx=2.4700 $ury=3.3850 $lvl=2
*|S (Y:4 2.4700 3.0150) // $llx=2.4700 $lly=3.0150 $urx=2.4700 $ury=3.0150 $lvl=2
*|S (Y:5 2.4700 2.2850) // $llx=2.4700 $lly=2.2850 $urx=2.4700 $ury=2.2850 $lvl=2
*|S (Y:6 2.4700 1.3500) // $llx=2.4700 $lly=1.3500 $urx=2.4700 $ury=1.3500 $lvl=2
*|S (Y:8 2.4700 0.9700) // $llx=2.4700 $lly=0.9700 $urx=2.4700 $ury=0.9700 $lvl=2
*|S (Y:9 2.4700 0.7550) // $llx=2.4700 $lly=0.7550 $urx=2.4700 $ury=0.7550 $lvl=2
*|S (Y:10 2.4700 3.3850) // $llx=2.4700 $lly=3.3850 $urx=2.4700 $ury=3.3850 $lvl=1
*|S (Y:11 2.7600 3.3850) // $llx=2.7600 $lly=3.3850 $urx=2.7600 $ury=3.3850 $lvl=1
*|S (Y:12 2.7600 0.7550) // $llx=2.7600 $lly=0.7550 $urx=2.7600 $ury=0.7550 $lvl=1
*|S (Y:13 2.4700 0.7550) // $llx=2.4700 $lly=0.7550 $urx=2.4700 $ury=0.7550 $lvl=1
CE1 Mmn4:d VSS! 9.64146e-19 $lvl=4
CE2 Mmp4:d VSS! 1.68761e-18 $lvl=4
CE3 Y:13 VSS! 2.43284e-18 $lvl=1
CE4 Y:10 VSS! 2.34951e-18 $lvl=1
CE5 Y:11 VSS! 6.56779e-18 $lvl=1
CE6 Y:12 VSS! 9.07039e-18 $lvl=1
CE7 Y:6 VSS! 2.71012e-17 $lvl=2
CE8 Y:1 VSS! 5.91523e-18 $lvl=2
CE9 Y:5 VSS! 1.99818e-18 $lvl=2
CE10 Y:9 VSS! 1.26608e-18 $lvl=2
CE11 Y:2 VSS! 1.90491e-18 $lvl=2
CE12 Y VSS! 1.03964e-17 $lvl=1
CE13 Y net116:28 5.80802e-18 $lvl1=1 $lvl2=2
CE14 Y net116:30 5.52704e-18 $lvl1=1 $lvl2=2
CE15 Y:6 net116:10 5.19564e-18 $lvl1=2 $lvl2=3
CE16 Y:6 net116:28 4.78783e-18 $lvl1=2 $lvl2=2
CE17 Y:5 net116:28 4.07442e-18 $lvl1=2 $lvl2=2
CE18 Y:1 net116:10 3.93109e-18 $lvl1=2 $lvl2=3
CE19 Y:5 net116:36 3.84228e-18 $lvl1=2 $lvl2=1
CE20 Y:11 net116:36 3.57839e-18 $lvl1=1 $lvl2=1
CE21 Y:12 net116:36 3.13629e-18 $lvl1=1 $lvl2=1
CE22 Y:9 net116:33 3.11854e-18 $lvl1=2 $lvl2=1
CE23 Y:2 net116:39 3.01426e-18 $lvl1=2 $lvl2=1
CE24 Y:5 net116:10 2.95716e-18 $lvl1=2 $lvl2=3
CE25 Y:1 net116:36 2.82742e-18 $lvl1=2 $lvl2=1
CE26 Y:1 net116:39 2.80079e-18 $lvl1=2 $lvl2=1
CE27 Y:5 net116:30 2.73112e-18 $lvl1=2 $lvl2=2
CE28 Y:12 net116:33 2.69522e-18 $lvl1=1 $lvl2=1
CE29 Y:6 net116:33 2.58848e-18 $lvl1=2 $lvl2=1
CE30 Y:1 net116:28 2.53937e-18 $lvl1=2 $lvl2=2
CE31 Y:11 net116:39 2.42357e-18 $lvl1=1 $lvl2=1
CE32 Y net116:10 2.39202e-18 $lvl1=1 $lvl2=3
CE33 Y:6 net116:30 2.24574e-18 $lvl1=2 $lvl2=2
CE34 Y:2 net116:37 2.2233e-18 $lvl1=2 $lvl2=1
CE35 Y:9 net116:34 2.00984e-18 $lvl1=2 $lvl2=1
CE36 Y:6 net116:36 1.84422e-18 $lvl1=2 $lvl2=1
CE37 Y:5 net116:37 1.64051e-18 $lvl1=2 $lvl2=1
CE38 Mmn4:d net116:10 1.25633e-18 $lvl1=4 $lvl2=3
CE39 Mmp4:d net116:10 1.20585e-18 $lvl1=4 $lvl2=3
CE40 Y:11 net116:40 1.0271e-18 $lvl1=1 $lvl2=1
CE41 Y net116:33 9.37144e-19 $lvl1=1 $lvl2=1
CE42 Y:1 net116:30 9.33574e-19 $lvl1=2 $lvl2=2
CE43 Y:5 net116:8 8.71223e-19 $lvl1=2 $lvl2=3
CE44 Y:10 net116:40 8.35909e-19 $lvl1=1 $lvl2=1
CE45 Y:12 net116:28 7.76527e-19 $lvl1=1 $lvl2=2
CE46 Y:12 net116:10 6.65502e-19 $lvl1=1 $lvl2=3
CE47 Y net116:39 5.33482e-19 $lvl1=1 $lvl2=1
CE48 Y:11 net116:33 4.99982e-19 $lvl1=1 $lvl2=1
CE49 Y:11 net116:34 4.67724e-19 $lvl1=1 $lvl2=1
CE50 Y net116:31 4.66054e-19 $lvl1=1 $lvl2=1
CE51 Y:12 net116:31 4.46314e-19 $lvl1=1 $lvl2=1
CE52 Y:13 net116:36 3.81631e-19 $lvl1=1 $lvl2=1
CE53 Y:12 net116:30 3.78224e-19 $lvl1=1 $lvl2=2
CE54 Y net116:40 3.78152e-19 $lvl1=1 $lvl2=1
CE55 Y net116:37 1.41288e-17 $lvl1=1 $lvl2=1
CE56 Y net116:36 8.31169e-17 $lvl1=1 $lvl2=1
CE57 Y:1 net116:37 1.69341e-17 $lvl1=2 $lvl2=1
CE58 Y net116:34 1.75177e-17 $lvl1=1 $lvl2=1
CE59 Y:13 net116:34 2.24758e-17 $lvl1=1 $lvl2=1
CE60 Y:6 net116:34 1.12491e-17 $lvl1=2 $lvl2=1
CE61 Y:12 net116:34 3.32369e-17 $lvl1=1 $lvl2=1
CE62 Y:6 net116 1.296e-16 $lvl1=2 $lvl2=3
CE63 Y:10 net116:39 3.92348e-17 $lvl1=1 $lvl2=1
CE64 Y:13 net116:33 3.87387e-17 $lvl1=1 $lvl2=1
CE65 Y:1 net116:8 2.49713e-16 $lvl1=2 $lvl2=3
CE66 Y:10 net116:37 2.43066e-17 $lvl1=1 $lvl2=1
CE67 Y:11 net116:37 5.34555e-17 $lvl1=1 $lvl2=1
CE68 Y:12 VSS!:8 5.14436e-18 $lvl1=1 $lvl2=2
CE69 Y:6 VSS!:10 3.26134e-18 $lvl1=2 $lvl2=1
CE70 Y:9 VSS!:1 3.023e-18 $lvl1=2 $lvl2=2
CE71 Y:13 VSS!:5 2.40201e-18 $lvl1=1 $lvl2=2
CE72 Y VSS!:10 2.10861e-18 $lvl1=1 $lvl2=1
CE73 Y:6 VSS!:6 1.99466e-18 $lvl1=2 $lvl2=4
CE74 Y:12 VSS!:5 1.91258e-18 $lvl1=1 $lvl2=2
CE75 Y VSS!:9 1.68431e-18 $lvl1=1 $lvl2=1
CE76 Y:13 VSS!:1 1.63952e-18 $lvl1=1 $lvl2=2
CE77 Y:6 VSS!:9 1.62098e-18 $lvl1=2 $lvl2=1
CE78 Y:13 VSS!:9 1.59141e-18 $lvl1=1 $lvl2=1
CE79 Y:9 VSS!:10 1.53474e-18 $lvl1=2 $lvl2=1
CE80 Y:9 VSS!:5 1.40549e-18 $lvl1=2 $lvl2=2
CE81 Y:6 Mmn4:s 1.30062e-18 $lvl1=2 $lvl2=4
CE82 Y VSS!:8 1.25382e-18 $lvl1=1 $lvl2=2
CE83 Mmn4:d VSS!:8 1.25317e-18 $lvl1=4 $lvl2=2
CE84 Y:11 VSS!:10 1.23856e-18 $lvl1=1 $lvl2=1
CE85 Mmn4:d VSS!:5 8.60977e-19 $lvl1=4 $lvl2=2
CE86 Mmn4:d VSS!:1 7.44851e-19 $lvl1=4 $lvl2=2
CE87 Y:11 VSS!:9 5.44517e-19 $lvl1=1 $lvl2=1
CE88 Y:6 VSS!:8 7.9379e-18 $lvl1=2 $lvl2=2
CE89 Y:12 VSS!:10 1.69275e-17 $lvl1=1 $lvl2=1
CE90 Y:12 VSS!:9 1.21933e-17 $lvl1=1 $lvl2=1
CE91 Y:13 VSS!:10 1.64313e-17 $lvl1=1 $lvl2=1
CE92 Y:6 VSS!:5 1.23143e-17 $lvl1=2 $lvl2=2
CE93 Y:6 VSS!:1 5.67705e-17 $lvl1=2 $lvl2=2
CE94 Y:1 VDD!:19 6.58378e-18 $lvl1=2 $lvl2=1
CE95 Y:11 VDD!:17 5.16012e-18 $lvl1=1 $lvl2=2
CE96 Y:13 VDD! 3.7813e-18 $lvl1=1 $lvl2=1
CE97 Y:1 VDD!:11 3.26692e-18 $lvl1=2 $lvl2=4
CE98 Y:10 VDD! 3.22214e-18 $lvl1=1 $lvl2=1
CE99 Y:2 VDD!:16 3.07575e-18 $lvl1=2 $lvl2=2
CE100 Y:1 VDD!:18 2.56772e-18 $lvl1=2 $lvl2=1
CE101 Mmp4:d VDD!:6 2.18022e-18 $lvl1=4 $lvl2=2
CE102 Y:1 VDD!:10 2.10081e-18 $lvl1=2 $lvl2=2
CE103 Y:5 VDD! 2.07593e-18 $lvl1=2 $lvl2=1
CE104 Y VDD!:19 1.97613e-18 $lvl1=1 $lvl2=1
CE105 Y VDD!:18 1.95428e-18 $lvl1=1 $lvl2=1
CE106 Mmp4:d VDD!:17 1.87406e-18 $lvl1=4 $lvl2=2
CE107 Y:10 VDD!:16 1.7641e-18 $lvl1=1 $lvl2=2
CE108 Y:2 VDD!:19 1.37679e-18 $lvl1=2 $lvl2=1
CE109 Y:10 VDD!:18 1.34648e-18 $lvl1=1 $lvl2=1
CE110 Y:11 VDD!:10 1.25108e-18 $lvl1=1 $lvl2=2
CE111 Y:11 VDD!:16 9.11265e-19 $lvl1=1 $lvl2=2
CE112 Y:10 VDD!:10 7.25855e-19 $lvl1=1 $lvl2=2
CE113 Y:10 VDD!:6 7.2283e-19 $lvl1=1 $lvl2=2
CE114 Y:11 VDD!:6 7.20474e-19 $lvl1=1 $lvl2=2
CE115 Y:11 VDD!:11 6.60206e-19 $lvl1=1 $lvl2=4
CE116 Y:1 Mmp0:s 6.04705e-19 $lvl1=2 $lvl2=4
CE117 Y VDD!:17 5.76151e-19 $lvl1=1 $lvl2=2
CE118 Y VDD!:16 5.69687e-19 $lvl1=1 $lvl2=2
CE119 Y:11 VDD!:18 1.25447e-17 $lvl1=1 $lvl2=1
CE120 Y:10 VDD!:19 1.61684e-17 $lvl1=1 $lvl2=1
CE121 Y:11 VDD! 3.41156e-17 $lvl1=1 $lvl2=1
CE122 Y:1 VDD!:16 9.29376e-17 $lvl1=2 $lvl2=2
CE123 Y:12 VDD! 2.47451e-17 $lvl1=1 $lvl2=1
CE124 Y:1 VDD!:17 1.31261e-17 $lvl1=2 $lvl2=2
CE125 Y VDD! 3.85394e-17 $lvl1=1 $lvl2=1
CE126 Y:11 VDD!:19 1.72951e-17 $lvl1=1 $lvl2=1
CE127 Y:6 VDD! 1.02589e-17 $lvl1=2 $lvl2=1
CE128 Y:1 VDD!:6 1.87331e-17 $lvl1=2 $lvl2=2
CE129 Y:5 VDD!:16 7.25929e-18 $lvl1=2 $lvl2=2
CE130 Y:1 VDD! 3.90361e-17 $lvl1=2 $lvl2=1
ReE51 Y:10 Y:11 0.125108 $metal1  $L=0.29025 $W=0.290000 $SI_W=0.29 $TYPE=10 $DIR=0 $LLX=2.470000 $LLY=3.240000 $URX=2.760000 $URY=3.530000 $lvl=1
ReE52 Y:11 Y 0.750120 $metal1  $L=1.56025 $W=0.260000 $SI_W=0.26 $TYPE=10 $DIR=1 $LLX=2.630000 $LLY=1.825000 $URX=2.890000 $URY=3.385000 $lvl=1
ReE53 Y Y:12 0.514303 $metal1  $L=1.06975 $W=0.260000 $SI_W=0.26 $TYPE=10 $DIR=1 $LLX=2.630000 $LLY=0.755000 $URX=2.890000 $URY=1.825000 $lvl=1
ReE54 Y:12 Y:13 0.125108 $metal1  $L=0.29025 $W=0.290000 $SI_W=0.29 $TYPE=10 $DIR=0 $LLX=2.470000 $LLY=0.610000 $URX=2.760000 $URY=0.900000 $lvl=1
RfE55 Y:1 Y:2 27.105881 $li  $L=0.36 $W=0.170000 $SI_W=0.17 $TYPE=10 $DIR=1 $LLX=2.385000 $LLY=3.385000 $URX=2.555000 $URY=3.745000 $lvl=2
RfE56 Y:2 Y:4 27.858822 $li  $L=0.37 $W=0.170000 $SI_W=0.17 $TYPE=10 $DIR=1 $LLX=2.385000 $LLY=3.015000 $URX=2.555000 $URY=3.385000 $lvl=2
RfE57 Y:4 Y:5 54.964703 $li  $L=0.73 $W=0.170000 $SI_W=0.17 $TYPE=10 $DIR=1 $LLX=2.385000 $LLY=2.285000 $URX=2.555000 $URY=3.015000 $lvl=2
RfE58 Y:6 Y:8 28.611765 $li  $L=0.38 $W=0.170000 $SI_W=0.17 $TYPE=10 $DIR=1 $LLX=2.385000 $LLY=0.970000 $URX=2.555000 $URY=1.350000 $lvl=2
RfE59 Y:8 Y:9 16.188236 $li  $L=0.215 $W=0.170000 $SI_W=0.17 $TYPE=10 $DIR=1 $LLX=2.385000 $LLY=0.755000 $URX=2.555000 $URY=0.970000 $lvl=2
RhE60 Mmn4:d Y:8 7.500000 $licon_diff  $A=0.0578 $VC=0 $SAVL=0 $SAVC=0 $SI_A=0.0578 $COVER_DIR=0 $LLX=0.000000 $LLY=0.000000 $URX=-0.057800 $URY=-2.000000 $lvl=5
Rh_2_E61 Mmp4:d Y:4 3.750000 $licon_diff  $A=0.1156 $VC=0 $SAVL=0 $SAVC=0 $SI_A=0.1156 $COVER_DIR=0 $LLX=0.000000 $LLY=0.000000 $URX=-0.115600 $URY=-4.000000 $lvl=5
RjE62 Y:2 Y:10 152.000000 $mcon  $L=0.17 $W=0.17 $A=0.0289 $VC=0 $SAVL=0 $SAVC=0 $SI_A=0.0289 $COVER_DIR=0 $LLX=0.000000 $LLY=0.000000 $URX=0.170000 $URY=0.170000 $lvl=6
RjE63 Y:9 Y:13 152.000000 $mcon  $L=0.17 $W=0.17 $A=0.0289 $VC=0 $SAVL=0 $SAVC=0 $SI_A=0.0289 $COVER_DIR=0 $LLX=0.000000 $LLY=0.000000 $URX=0.170000 $URY=0.170000 $lvl=6
*
*|NET net128 2.6527e-16
*|I (Mmn1:d Mmn1 d X 0 1.2595 0.8025) // $llx=1.2595 $lly=0.8025 $urx=1.2595 $ury=0.8025 $lvl=4
*|I (Mmn2:s Mmn2 s X 0 0.9805 0.8025) // $llx=0.9805 $lly=0.8025 $urx=0.9805 $ury=0.8025 $lvl=4
*|S (net128 1.1200 1.0145) // $llx=1.1200 $lly=1.0145 $urx=1.1200 $ury=1.0145 $lvl=2
*|S (net128:3 1.1200 0.8000) // $llx=1.1200 $lly=0.8000 $urx=1.1200 $ury=0.8000 $lvl=2
*|S (net128:4 1.1200 0.5900) // $llx=1.1200 $lly=0.5900 $urx=1.1200 $ury=0.5900 $lvl=2
CK1 Mmn1:d VSS! 1.62839e-18 $lvl=4
CK2 net128:3 VSS! 7.89444e-18 $lvl=2
CK3 net128:4 VSS! 1.64511e-18 $lvl=2
CK4 net128 VSS! 5.12407e-18 $lvl=2
CK5 Mmn1:d VSS!:5 1.04621e-18 $lvl1=4 $lvl2=2
CK6 net128:3 VSS!:6 6.33983e-19 $lvl1=2 $lvl2=4
CK7 net128:4 VSS!:10 1.88305e-18 $lvl1=2 $lvl2=1
CK8 net128:3 VSS!:10 1.57702e-18 $lvl1=2 $lvl2=1
CK9 net128:4 VSS!:5 7.26229e-18 $lvl1=2 $lvl2=2
CK10 net128:3 VSS!:5 6.1355e-18 $lvl1=2 $lvl2=2
RfK152 net128 net128:3 16.150589 $li  $L=0.2145 $W=0.170000 $SI_W=0.17 $TYPE=10 $DIR=1 $LLX=1.035000 $LLY=0.800000 $URX=1.205000 $URY=1.014500 $lvl=2
RfK153 net128:3 net128:4 15.811765 $li  $L=0.21 $W=0.170000 $SI_W=0.17 $TYPE=10 $DIR=1 $LLX=1.035000 $LLY=0.590000 $URX=1.205000 $URY=0.800000 $lvl=2
RhK154 Mmn1:d net128:3 15.000000 $licon_diff  $L=0.17 $W=0.17 $A=0.0289 $VC=0 $SAVL=0 $SAVC=0 $SI_A=0.0289 $COVER_DIR=0 $LLX=0.000000 $LLY=0.000000 $URX=0.170000 $URY=0.170000 $lvl=5
RmwK155 Mmn2:s Mmn1:d 0.001000 $diff $W=1000000 $SI_W=1000000 $TYPE=1 $DIR=0
*
*|NET A 8.37451e-16
*|P (A X 0 1.8400 2.2100) // $llx=1.8400 $lly=2.2100 $urx=1.8400 $ury=2.2100 $lvl=1
*|I (Mmp0:g Mmp0 g X 0 1.7650 3.3550) // $llx=1.7650 $lly=3.3550 $urx=1.7650 $ury=3.3550 $lvl=3
*|I (Mmn0:g Mmn0 g X 0 1.7650 0.8025) // $llx=1.7650 $lly=0.8025 $urx=1.7650 $ury=0.8025 $lvl=3
*|S (A:8 1.7650 3.8950) // $llx=1.7650 $lly=3.8950 $urx=1.7650 $ury=3.8950 $lvl=3
*|S (A:9 1.7650 1.8750) // $llx=1.7650 $lly=1.8750 $urx=1.7650 $ury=1.8750 $lvl=3
*|S (A:10 1.7650 1.7100) // $llx=1.7650 $lly=1.7100 $urx=1.7650 $ury=1.7100 $lvl=3
*|S (A:11 1.7650 0.4400) // $llx=1.7650 $lly=0.4400 $urx=1.7650 $ury=0.4400 $lvl=3
*|S (A:12 1.9600 1.8750) // $llx=1.9600 $lly=1.8750 $urx=1.9600 $ury=1.8750 $lvl=2
*|S (A:13 1.7950 1.8750) // $llx=1.7950 $lly=1.8750 $urx=1.7950 $ury=1.8750 $lvl=2
*|S (A:14 1.7650 1.8750) // $llx=1.7650 $lly=1.8750 $urx=1.7650 $ury=1.8750 $lvl=2
*|S (A:15 1.5500 1.8750) // $llx=1.5500 $lly=1.8750 $urx=1.5500 $ury=1.8750 $lvl=2
*|S (A:16 1.8400 2.6500) // $llx=1.8400 $lly=2.6500 $urx=1.8400 $ury=2.6500 $lvl=1
*|S (A:17 1.7950 1.8750) // $llx=1.7950 $lly=1.8750 $urx=1.7950 $ury=1.8750 $lvl=1
*|S (A:18 1.8400 1.4100) // $llx=1.8400 $lly=1.4100 $urx=1.8400 $ury=1.4100 $lvl=1
CA1 Mmn0:g VSS! 1.81431e-18 $lvl=3
CA2 A:8 VSS! 1.62178e-18 $lvl=3
CA3 A:17 VSS! 3.87495e-18 $lvl=1
CA4 A:16 VSS! 4.84625e-18 $lvl=1
CA5 A:18 VSS! 4.53948e-18 $lvl=1
CA6 A:14 VSS! 3.48652e-18 $lvl=2
CA7 A:15 VSS! 4.71164e-18 $lvl=2
CA8 A:13 VSS! 3.7643e-18 $lvl=2
CA9 A:9 VSS! 1.81029e-17 $lvl=3
CA10 Mmn0:g net124:4 8.09613e-19 $lvl1=3 $lvl2=2
CA11 Mmn0:g net124 5.91979e-19 $lvl1=3 $lvl2=2
CA12 A:18 net124 4.40114e-19 $lvl1=1 $lvl2=2
CA13 Mmn0:g net124:3 6.74787e-17 $lvl1=3 $lvl2=2
CA14 A:13 net116:30 2.60278e-18 $lvl1=2 $lvl2=2
CA15 A:14 net116:30 2.34732e-18 $lvl1=2 $lvl2=2
CA16 A:9 net116:28 2.18336e-18 $lvl1=3 $lvl2=2
CA17 A:14 net116:10 2.13029e-18 $lvl1=2 $lvl2=3
CA18 A:13 net116:28 2.12099e-18 $lvl1=2 $lvl2=2
CA19 A:16 net116:27 2.11179e-18 $lvl1=1 $lvl2=2
CA20 A:13 net116:36 2.06005e-18 $lvl1=2 $lvl2=1
CA21 A:16 net116:39 1.68065e-18 $lvl1=1 $lvl2=1
CA22 A:9 net116:8 1.47732e-18 $lvl1=3 $lvl2=3
CA23 A:18 net116:30 1.39509e-18 $lvl1=1 $lvl2=2
CA24 A:17 net116:30 1.39036e-18 $lvl1=1 $lvl2=2
CA25 A:9 net116 1.27126e-18 $lvl1=3 $lvl2=3
CA26 A:16 net116:23 9.6932e-19 $lvl1=1 $lvl2=2
CA27 A:14 net116:36 9.29891e-19 $lvl1=2 $lvl2=1
CA28 A:8 net116:27 9.08295e-19 $lvl1=3 $lvl2=2
CA29 A:16 net116:30 8.61304e-19 $lvl1=1 $lvl2=2
CA30 A:17 net116:34 7.91874e-19 $lvl1=1 $lvl2=1
CA31 A:18 net116:28 7.37228e-19 $lvl1=1 $lvl2=2
CA32 A:16 net116:42 7.23876e-19 $lvl1=1 $lvl2=1
CA33 A:16 net116:24 5.81832e-19 $lvl1=1 $lvl2=2
CA34 A:18 net116:31 5.66727e-19 $lvl1=1 $lvl2=1
CA35 A:13 net116:34 5.63785e-19 $lvl1=2 $lvl2=1
CA36 A:17 net116:37 5.38196e-19 $lvl1=1 $lvl2=1
CA37 A:17 net116:28 5.2662e-19 $lvl1=1 $lvl2=2
CA38 A:13 net116:10 5.2531e-19 $lvl1=2 $lvl2=3
CA39 A:9 net116:30 4.65326e-19 $lvl1=3 $lvl2=2
CA40 A:16 net116:28 4.40752e-19 $lvl1=1 $lvl2=2
CA41 A:16 net116:34 4.05085e-19 $lvl1=1 $lvl2=1
CA42 A:18 net116:37 3.93174e-19 $lvl1=1 $lvl2=1
CA43 A:17 net116:33 3.84803e-19 $lvl1=1 $lvl2=1
CA44 A:16 net116:33 3.35565e-19 $lvl1=1 $lvl2=1
CA45 A:9 net116:36 3.27588e-19 $lvl1=3 $lvl2=1
CA46 A:16 net116:31 3.14053e-19 $lvl1=1 $lvl2=1
CA47 Mmn0:g net116:33 2.98925e-19 $lvl1=3 $lvl2=1
CA48 A:14 net116:34 2.69006e-19 $lvl1=2 $lvl2=1
CA49 A:18 net116:10 2.43476e-19 $lvl1=1 $lvl2=3
CA50 A:9 net116:34 2.40306e-19 $lvl1=3 $lvl2=1
CA51 A:9 net116:27 2.38563e-19 $lvl1=3 $lvl2=2
CA52 A:17 net116:40 2.24501e-19 $lvl1=1 $lvl2=1
CA53 A:16 net116:10 2.22675e-19 $lvl1=1 $lvl2=3
CA54 A:14 net116:8 1.94522e-19 $lvl1=2 $lvl2=3
CA55 A:15 net116:10 1.70654e-19 $lvl1=2 $lvl2=3
CA56 A:17 net116:31 1.68389e-19 $lvl1=1 $lvl2=1
CA57 A:17 net116:36 2.51429e-17 $lvl1=1 $lvl2=1
CA58 A:16 net116:40 5.6219e-18 $lvl1=1 $lvl2=1
CA59 A:16 net116:37 4.16041e-17 $lvl1=1 $lvl2=1
CA60 A:16 net116:36 3.22019e-17 $lvl1=1 $lvl2=1
CA61 A:18 net116:36 2.40356e-17 $lvl1=1 $lvl2=1
CA62 A:18 net116:34 3.24089e-17 $lvl1=1 $lvl2=1
CA63 A:18 net116:33 5.16997e-18 $lvl1=1 $lvl2=1
CA64 A:8 net116:23 1.31507e-16 $lvl1=3 $lvl2=2
CA65 A:9 net116:10 7.39875e-18 $lvl1=3 $lvl2=3
CA66 A:14 net116:28 1.238e-17 $lvl1=2 $lvl2=2
CA67 A:14 VSS!:1 2.01516e-18 $lvl1=2 $lvl2=2
CA68 A:13 VSS!:1 2.00504e-18 $lvl1=2 $lvl2=2
CA69 A:9 Mmn4:s 9.9467e-19 $lvl1=3 $lvl2=4
CA70 A:9 VSS!:1 4.6375e-18 $lvl1=3 $lvl2=2
CA71 Mmn0:g VSS!:1 4.01538e-17 $lvl1=3 $lvl2=2
CA72 A:18 VSS!:1 4.8657e-18 $lvl1=1 $lvl2=2
CA73 Mmn0:g VSS!:5 6.27443e-18 $lvl1=3 $lvl2=2
CA74 A:14 VDD!:16 3.37652e-18 $lvl1=2 $lvl2=2
CA75 A:18 VDD! 3.12862e-18 $lvl1=1 $lvl2=1
CA76 A:13 VDD!:16 3.04869e-18 $lvl1=2 $lvl2=2
CA77 A:17 VDD! 1.8909e-18 $lvl1=1 $lvl2=1
CA78 A:9 Mmp0:s 1.61696e-18 $lvl1=3 $lvl2=4
CA79 A:15 VDD!:16 1.50202e-18 $lvl1=2 $lvl2=2
CA80 A:16 VDD!:19 1.38236e-18 $lvl1=1 $lvl2=1
CA81 A:16 VDD!:9 9.28986e-19 $lvl1=1 $lvl2=2
CA82 A:8 VDD!:9 9.06828e-19 $lvl1=3 $lvl2=2
CA83 A:15 VDD! 7.74651e-19 $lvl1=2 $lvl2=1
CA84 A:8 VDD!:16 7.1292e-17 $lvl1=3 $lvl2=2
CA85 A:9 VDD! 5.61909e-18 $lvl1=3 $lvl2=1
CA86 A:16 VDD!:16 1.61393e-17 $lvl1=1 $lvl2=2
CA87 A:16 VDD! 5.49956e-18 $lvl1=1 $lvl2=1
CA88 A:8 VDD!:6 1.03809e-17 $lvl1=3 $lvl2=2
CA89 A:9 VDD!:16 7.77623e-18 $lvl1=3 $lvl2=2
CA90 A:16 Y 1.62347e-18 $lvl1=1 $lvl2=1
CA91 A:16 Y:11 1.31145e-18 $lvl1=1 $lvl2=1
CA92 A:18 Y 1.06886e-18 $lvl1=1 $lvl2=1
CA93 A:16 Y:1 8.61788e-19 $lvl1=1 $lvl2=2
CA94 A:17 Y 7.71157e-19 $lvl1=1 $lvl2=1
CA95 A:18 Y:12 6.4462e-19 $lvl1=1 $lvl2=1
CA96 A:9 Y:6 6.42784e-19 $lvl1=3 $lvl2=2
CA97 A:18 Y:6 5.09393e-19 $lvl1=1 $lvl2=2
CA98 A:16 Y:10 4.29932e-19 $lvl1=1 $lvl2=1
CA99 A:16 Y:5 3.88682e-19 $lvl1=1 $lvl2=2
CA100 A:14 Y:6 3.73615e-19 $lvl1=2 $lvl2=2
CA101 A:18 Y:13 3.28303e-19 $lvl1=1 $lvl2=1
CA102 A:16 C:14 3.76808e-18 $lvl1=1 $lvl2=1
CA103 A:9 C:9 1.20381e-18 $lvl1=3 $lvl2=3
CA104 A:15 C 1.18193e-18 $lvl1=2 $lvl2=1
CA105 A:16 C:13 1.15492e-18 $lvl1=1 $lvl2=2
CA106 A:16 C:12 7.9514e-19 $lvl1=1 $lvl2=2
CA107 A:18 C 7.2752e-19 $lvl1=1 $lvl2=1
CA108 A:9 C 6.98778e-19 $lvl1=3 $lvl2=1
CA109 A:15 C:9 6.78566e-19 $lvl1=2 $lvl2=3
CA110 A:17 C 6.28567e-19 $lvl1=1 $lvl2=1
CA111 A:9 C:13 6.163e-19 $lvl1=3 $lvl2=2
CA112 A:15 C:13 5.93042e-19 $lvl1=2 $lvl2=2
CA113 A:16 C 5.04349e-18 $lvl1=1 $lvl2=1
CA114 A:18 B:18 3.9473e-18 $lvl1=1 $lvl2=1
CA115 A:18 B:13 2.49783e-18 $lvl1=1 $lvl2=2
CA116 Mmn0:g B:9 2.18242e-18 $lvl1=3 $lvl2=3
CA117 A:9 B:14 2.09805e-18 $lvl1=3 $lvl2=2
CA118 A:15 B:14 1.92243e-18 $lvl1=2 $lvl2=2
CA119 A:15 B:9 1.91633e-18 $lvl1=2 $lvl2=3
CA120 A:18 B:14 1.65575e-18 $lvl1=1 $lvl2=2
CA121 A:15 B:13 1.60388e-18 $lvl1=2 $lvl2=2
CA122 A:9 B 1.53936e-18 $lvl1=3 $lvl2=1
CA123 A:13 B:14 1.3044e-18 $lvl1=2 $lvl2=2
CA124 A:13 B:13 1.19398e-18 $lvl1=2 $lvl2=2
CA125 A:14 B 8.65065e-19 $lvl1=2 $lvl2=1
CA126 A:14 B:14 7.83926e-19 $lvl1=2 $lvl2=2
CA127 A:9 B:13 7.14052e-19 $lvl1=3 $lvl2=2
CA128 A:17 B:17 6.81958e-19 $lvl1=1 $lvl2=1
CA129 A:13 B:17 5.76744e-19 $lvl1=2 $lvl2=1
CA130 A:13 B:9 5.5254e-19 $lvl1=2 $lvl2=3
CA131 A:15 B:15 5.21475e-19 $lvl1=2 $lvl2=2
CA132 A:16 B:17 4.45598e-19 $lvl1=1 $lvl2=1
CA133 A:15 B:17 4.27223e-19 $lvl1=2 $lvl2=1
CA134 Mmn0:g B:14 4.23159e-19 $lvl1=3 $lvl2=2
CA135 A:16 B 3.34474e-17 $lvl1=1 $lvl2=1
CA136 A:18 B 1.94369e-17 $lvl1=1 $lvl2=1
CA137 A:15 B 5.67479e-18 $lvl1=2 $lvl2=1
CA138 A:13 B 8.34006e-18 $lvl1=2 $lvl2=1
CA139 A:9 B:9 5.03284e-18 $lvl1=3 $lvl2=3
CA140 A:18 B:17 2.07613e-17 $lvl1=1 $lvl2=1
CA141 A:17 B 2.37634e-17 $lvl1=1 $lvl2=1
ReA1 A:16 A 0.211538 $metal1  $L=0.44 $W=0.260000 $SI_W=0.26 $TYPE=10 $DIR=1 $LLX=1.710000 $LLY=2.210000 $URX=1.970000 $URY=2.650000 $lvl=1
ReA2 A A:17 0.161058 $metal1  $L=0.335 $W=0.260000 $SI_W=0.26 $TYPE=10 $DIR=1 $LLX=1.710000 $LLY=1.875000 $URX=1.970000 $URY=2.210000 $lvl=1
ReA3 A:17 A:18 0.223558 $metal1  $L=0.465 $W=0.260000 $SI_W=0.26 $TYPE=10 $DIR=1 $LLX=1.710000 $LLY=1.410000 $URX=1.970000 $URY=1.875000 $lvl=1
RfA4 A:12 A:13 12.423529 $li  $L=0.165 $W=0.170000 $SI_W=0.17 $TYPE=10 $DIR=0 $LLX=1.795000 $LLY=1.790000 $URX=1.960000 $URY=1.960000 $lvl=2
RfA5 A:13 A:14 2.258824 $li  $L=0.03 $W=1000000 $SI_W=1000000 $TYPE=1,10 $DIR=0 $LLX=1.765000 $LLY=1.790000 $URX=1.795000 $URY=1.960000 $lvl=2
RfA6 A:14 A:15 16.188236 $li  $L=0.215 $W=0.170000 $SI_W=0.17 $TYPE=10 $DIR=0 $LLX=1.550000 $LLY=1.790000 $URX=1.765000 $URY=1.960000 $lvl=2
RgA7 A:8 Mmp0:g 173.519989 $poly  $L=0.54 $W=0.150000 $SI_W=0.15 $TYPE=10 $DIR=1 $LLX=1.690000 $LLY=3.355000 $URX=1.840000 $URY=3.895000 $lvl=3
RgA8 Mmp0:g A:9 456.732422 $poly  $L=1.48 $W=0.150000 $SI_W=0.15 $TYPE=10 $DIR=1 $LLX=1.690000 $LLY=1.875000 $URX=1.840000 $URY=3.355000 $lvl=3
RgA9 A:9 A:10 34.134449 $poly  $L=0.1645 $W=0.270000 $SI_W=0.27 $TYPE=10 $DIR=1 $LLX=1.630000 $LLY=1.710500 $URX=1.900000 $URY=1.875000 $lvl=3
RgA10 A:10 Mmn0:g 291.654633 $poly  $L=0.9075 $W=0.150000 $SI_W=0.15 $TYPE=10 $DIR=1 $LLX=1.690000 $LLY=0.802500 $URX=1.840000 $URY=1.710000 $lvl=3
RgA11 Mmn0:g A:11 116.483322 $poly  $L=0.3625 $W=0.150000 $SI_W=0.15 $TYPE=10 $DIR=1 $LLX=1.690000 $LLY=0.440000 $URX=1.840000 $URY=0.802500 $lvl=3
RjA12 A:13 A:17 152.000000 $mcon  $L=0.17 $W=0.17 $A=0.0289 $VC=0 $SAVL=0 $SAVC=0 $SI_A=0.0289 $COVER_DIR=0 $LLX=0.000000 $LLY=0.000000 $URX=0.170000 $URY=0.170000 $lvl=6
RiA13 A:9 A:14 15.000000 $licon  $L=0.17 $W=0.17 $A=0.0289 $VC=0 $SAVL=0 $SAVC=0 $SI_A=0.0289 $COVER_DIR=0 $LLX=0.000000 $LLY=0.000000 $URX=0.170000 $URY=0.170000 $lvl=7
*
*|NET net124 2.68824e-16
*|I (Mmn1:s Mmn1 s X 0 1.4105 0.8025) // $llx=1.4105 $lly=0.8025 $urx=1.4105 $ury=0.8025 $lvl=4
*|I (Mmn0:d Mmn0 d X 0 1.6895 0.8025) // $llx=1.6895 $lly=0.8025 $urx=1.6895 $ury=0.8025 $lvl=4
*|S (net124 1.5500 1.0145) // $llx=1.5500 $lly=1.0145 $urx=1.5500 $ury=1.0145 $lvl=2
*|S (net124:3 1.5500 0.8000) // $llx=1.5500 $lly=0.8000 $urx=1.5500 $ury=0.8000 $lvl=2
*|S (net124:4 1.5500 0.5900) // $llx=1.5500 $lly=0.5900 $urx=1.5500 $ury=0.5900 $lvl=2
CI1 Mmn1:s VSS! 7.94662e-19 $lvl=4
CI2 net124:3 VSS! 9.52496e-18 $lvl=2
CI3 net124:4 VSS! 1.45146e-18 $lvl=2
CI4 net124 VSS! 2.00254e-18 $lvl=2
CI5 net124:4 net128:4 1.9523e-18 $lvl1=2 $lvl2=2
CI6 net124:3 net128:3 1.60371e-17 $lvl1=2 $lvl2=2
CI7 net124 net128:3 2.00978e-18 $lvl1=2 $lvl2=2
CI8 net124 net128 1.51787e-18 $lvl1=2 $lvl2=2
CI9 net124:3 net128 2.10601e-18 $lvl1=2 $lvl2=2
CI10 net124:4 net128:3 2.50659e-18 $lvl1=2 $lvl2=2
CI11 net124:3 net128:4 2.51961e-18 $lvl1=2 $lvl2=2
CI12 Mmn1:s VSS!:5 1.0584e-18 $lvl1=4 $lvl2=2
CI13 Mmn1:s VSS!:1 7.6781e-19 $lvl1=4 $lvl2=2
CI14 net124:3 Mmn4:s 6.89209e-19 $lvl1=2 $lvl2=4
CI15 net124:3 VSS!:5 7.31961e-18 $lvl1=2 $lvl2=2
CI16 net124:4 VSS!:10 2.08115e-18 $lvl1=2 $lvl2=1
CI17 net124:4 VSS!:5 7.83506e-18 $lvl1=2 $lvl2=2
CI18 net124:4 VSS!:1 3.74336e-18 $lvl1=2 $lvl2=2
CI19 net124 VSS!:1 5.40128e-18 $lvl1=2 $lvl2=2
CI20 net124:3 VSS!:1 2.06251e-17 $lvl1=2 $lvl2=2
CI21 net124:3 VSS!:10 1.36131e-18 $lvl1=2 $lvl2=1