*
*|DSPF 1.5
*
*|DATE "Wed Jan  8 23:44:45 2025"
*|VENDOR "Cadence Design Systems"
*|PROGRAM "Cadence Quantus Extraction"
*|VERSION "22.1.0-p089 Linux 64 bit - (Thu Jan 19 11:47:08 PST 2023)"
*|DESIGN AND4X2_HS
*|DIVIDER /
*|DELIMITER :
*|DeviceFingerDelim "@"
*|BUSBIT []
*|GLOBAL_TEMPERATURE 25
*|OPERATING_TEMPERATURE 25

** *VIA_COVERAGE_CODES
** *index FF FS FP FU SF SS SP SU PF PS PP PU UF US UP UU X_by_Y
** * "FF" stands for Full landing and Full coverage
** *0 0 0 0 0 0 0 0 0 0 0 0 0 0 0 0 0
** *1 0 0 0 0 0 0 0 0 0 0 0 0 0 0 0 1 1x1
** *2 0 0 0 0 0 0 0 0 0 0 0 0 0 0 1 0 1x1
** *3 0 0 0 0 0 0 0 0 0 0 0 0 0 1 0 0 1x1
** *4 0 0 0 0 0 0 0 0 0 0 0 0 1 0 0 0 1x1
** *5 0 0 0 0 0 0 0 0 0 0 0 1 0 0 0 0 1x1
** *6 0 0 0 0 0 0 0 0 0 0 1 0 0 0 0 0 1x1
** *7 0 0 0 0 0 0 0 0 0 1 0 0 0 0 0 0 1x1
** *8 0 0 0 0 0 0 0 0 1 0 0 0 0 0 0 0 1x1
** *9 0 0 0 0 0 0 0 1 0 0 0 0 0 0 0 0 1x1
** *10 0 0 0 0 0 0 1 0 0 0 0 0 0 0 0 0 1x1
** *11 0 0 0 0 0 1 0 0 0 0 0 0 0 0 0 0 1x1
** *12 0 0 0 0 1 0 0 0 0 0 0 0 0 0 0 0 1x1
** *13 0 0 0 1 0 0 0 0 0 0 0 0 0 0 0 0 1x1
** *14 0 0 1 0 0 0 0 0 0 0 0 0 0 0 0 0 1x1
** *15 0 1 0 0 0 0 0 0 0 0 0 0 0 0 0 0 1x1
** *16 1 0 0 0 0 0 0 0 0 0 0 0 0 0 0 0 1x1

** *RESISTOR_TYPES
** *1 SHORTING_ELEMENT
** *2 PRES_NG
** *3 PRES_PG
** *4 PRES_NF
** *5 PRES_PF
** *6 TCN_NDIFF
** *7 TCN_PDIFF
** *8 TCN_NFIELD
** *9 TCN_PFIELD
** *10 QUALITY_EXTRACTED
** *11 GCNLAND
** *12 TCNLAND
** *13 DUMMY
** *14 RSD
** *15 BRIDGE

** *RESISTOR_CURRENT_DIRECTION
** *0 HORIZONTAL
** *1 VERTICAL
** *2 45 DEGREE

** QRC_TECH_DIR /vols/wfo_devel/projects/reference_SKY130/tech/sky130_release_0.0.4/quantus/extraction/typical 
** HIERARCHICAL_SPLIT_PINS_DELIMITER '%'
** caps2d version: 10
*
.SUBCKT  AND4X2_HS A B C D Y
*
*Net Section
*
*|GROUND_NET VSS!
*
*LAYER_MAP
*0 none
*1 metal1
*2 li
*3 poly
*4 diff
*5 licon_diff
*6 mcon
*7 licon
*8 FOX

*|NET B 8.86526e-16
*|P (B X 0 1.3950 2.6100) // $llx=1.3950 $lly=2.6100 $urx=1.3950 $ury=2.6100 $lvl=1
*|I (Mmp1:g Mmp1 g X 0 1.3350 3.3550) // $llx=1.3350 $lly=3.3550 $urx=1.3350 $ury=3.3550 $lvl=3
*|I (Mmn1:g Mmn1 g X 0 1.3350 0.6075) // $llx=1.3350 $lly=0.6075 $urx=1.3350 $ury=0.6075 $lvl=3
*|S (B:8 1.3350 3.8950) // $llx=1.3350 $lly=3.8950 $urx=1.3350 $ury=3.8950 $lvl=3
*|S (B:9 1.3250 2.4550) // $llx=1.3250 $lly=2.4550 $urx=1.3250 $ury=2.4550 $lvl=3
*|S (B:10 1.3250 2.2900) // $llx=1.3250 $lly=2.2900 $urx=1.3250 $ury=2.2900 $lvl=3
*|S (B:11 1.3350 0.2450) // $llx=1.3350 $lly=0.2450 $urx=1.3350 $ury=0.2450 $lvl=3
*|S (B:12 1.5500 2.4550) // $llx=1.5500 $lly=2.4550 $urx=1.5500 $ury=2.4550 $lvl=2
*|S (B:13 1.3850 2.4550) // $llx=1.3850 $lly=2.4550 $urx=1.3850 $ury=2.4550 $lvl=2
*|S (B:14 1.3250 2.4550) // $llx=1.3250 $lly=2.4550 $urx=1.3250 $ury=2.4550 $lvl=2
*|S (B:15 0.9550 2.4550) // $llx=0.9550 $lly=2.4550 $urx=0.9550 $ury=2.4550 $lvl=2
*|S (B:16 1.3800 3.1050) // $llx=1.3800 $lly=3.1050 $urx=1.3800 $ury=3.1050 $lvl=1
*|S (B:17 1.3850 2.4550) // $llx=1.3850 $lly=2.4550 $urx=1.3850 $ury=2.4550 $lvl=1
*|S (B:18 1.3800 1.8650) // $llx=1.3800 $lly=1.8650 $urx=1.3800 $ury=1.8650 $lvl=1
CB1 Mmn1:g VSS! 4.53663e-18 $lvl=3
CB2 Mmp1:g VSS! 7.98624e-19 $lvl=3
CB3 B:16 VSS! 5.84692e-18 $lvl=1
CB4 B:18 VSS! 6.45622e-18 $lvl=1
CB5 B:12 VSS! 4.08035e-18 $lvl=2
CB6 B:15 VSS! 5.48903e-18 $lvl=2
CB7 B:13 VSS! 3.44908e-18 $lvl=2
CB8 B:9 VSS! 8.72879e-18 $lvl=3
CB9 Mmn1:g net120:3 6.62714e-17 $lvl1=3 $lvl2=2
CB10 Mmn1:g net124:3 6.5129e-17 $lvl1=3 $lvl2=2
CB11 B:16 net100:45 3.14838e-18 $lvl1=1 $lvl2=1
CB12 B:16 net100:34 2.777e-18 $lvl1=1 $lvl2=2
CB13 B:16 net100:33 2.65202e-18 $lvl1=1 $lvl2=2
CB14 B:15 net100:32 2.4924e-18 $lvl1=2 $lvl2=2
CB15 B:9 net100:37 2.04371e-18 $lvl1=3 $lvl2=2
CB16 B:12 net100:37 1.79847e-18 $lvl1=2 $lvl2=2
CB17 B:9 net100:33 1.76074e-18 $lvl1=3 $lvl2=2
CB18 B:13 net100:37 1.7159e-18 $lvl1=2 $lvl2=2
CB19 B:16 net100:47 1.47424e-18 $lvl1=1 $lvl2=1
CB20 B:16 net100:32 1.41747e-18 $lvl1=1 $lvl2=2
CB21 B:18 net100:48 1.20361e-18 $lvl1=1 $lvl2=1
CB22 B:15 net100:28 1.19787e-18 $lvl1=2 $lvl2=2
CB23 B:15 net100:42 1.07129e-18 $lvl1=2 $lvl2=1
CB24 B:16 net100:48 9.76181e-19 $lvl1=1 $lvl2=1
CB25 Mmp1:g net100:37 9.39304e-19 $lvl1=3 $lvl2=2
CB26 B:16 net100:28 8.96907e-19 $lvl1=1 $lvl2=2
CB27 B:18 net100:41 8.31667e-19 $lvl1=1 $lvl2=2
CB28 B:18 net100:51 7.69288e-19 $lvl1=1 $lvl2=1
CB29 B:16 net100:29 7.54499e-19 $lvl1=1 $lvl2=2
CB30 B:9 Mmp0:d 7.5132e-19 $lvl1=3 $lvl2=4
CB31 B:12 net100:41 7.2951e-19 $lvl1=2 $lvl2=2
CB32 B:9 net100:28 7.06321e-19 $lvl1=3 $lvl2=2
CB33 B:9 net100:41 6.95189e-19 $lvl1=3 $lvl2=2
CB34 B:12 net100:33 6.84098e-19 $lvl1=2 $lvl2=2
CB35 B:9 net100:32 6.77014e-19 $lvl1=3 $lvl2=2
CB36 B:9 net100:17 6.51957e-19 $lvl1=3 $lvl2=3
CB37 B:18 net100:50 6.23419e-19 $lvl1=1 $lvl2=1
CB38 Mmp1:g net100:28 6.21375e-19 $lvl1=3 $lvl2=2
CB39 B:13 net100:33 5.65161e-19 $lvl1=2 $lvl2=2
CB40 B:18 net100:42 5.53874e-19 $lvl1=1 $lvl2=1
CB41 B:15 net100:37 5.06119e-19 $lvl1=2 $lvl2=2
CB42 B:18 net100:54 4.4273e-19 $lvl1=1 $lvl2=1
CB43 B:18 net100:44 4.06102e-19 $lvl1=1 $lvl2=1
CB44 B:15 net100:33 3.95516e-19 $lvl1=2 $lvl2=2
CB45 B:12 net100:17 3.65012e-19 $lvl1=2 $lvl2=3
CB46 B:13 net100:41 3.51495e-19 $lvl1=2 $lvl2=2
CB47 B:13 net100:42 2.97908e-19 $lvl1=2 $lvl2=1
CB48 B:18 net100:47 2.97392e-19 $lvl1=1 $lvl2=1
CB49 B:13 net100:46 2.82542e-19 $lvl1=2 $lvl2=1
CB50 B:13 net100:32 2.70395e-19 $lvl1=2 $lvl2=2
CB51 B:18 net100:46 2.57169e-19 $lvl1=1 $lvl2=1
CB52 B:16 net100:54 2.56286e-19 $lvl1=1 $lvl2=1
CB53 Mmp1:g net100:32 2.50818e-19 $lvl1=3 $lvl2=2
CB54 B:9 net100:22 2.50158e-19 $lvl1=3 $lvl2=3
CB55 B:9 Mmp2:d 2.44894e-19 $lvl1=3 $lvl2=4
CB56 B:15 net100:29 2.38659e-19 $lvl1=2 $lvl2=2
CB57 B:12 net100:46 2.20411e-19 $lvl1=2 $lvl2=1
CB58 B:16 net100:51 2.13865e-19 $lvl1=1 $lvl2=1
CB59 B:15 net100:44 1.97295e-19 $lvl1=2 $lvl2=1
CB60 B:16 net100:50 1.92659e-19 $lvl1=1 $lvl2=1
CB61 B:13 net100:44 1.84107e-19 $lvl1=2 $lvl2=1
CB62 Mmn1:g net100:51 1.67564e-19 $lvl1=3 $lvl2=1
CB63 B:16 net100:37 5.23309e-18 $lvl1=1 $lvl2=2
CB64 B:16 net100:46 1.15987e-17 $lvl1=1 $lvl2=1
CB65 B:16 net100:42 1.43896e-17 $lvl1=1 $lvl2=1
CB66 B:16 net100:44 4.70221e-17 $lvl1=1 $lvl2=1
CB67 Mmp1:g net100:33 1.2869e-16 $lvl1=3 $lvl2=2
CB68 Mmn1:g VSS!:6 8.42388e-18 $lvl1=3 $lvl2=2
CB69 B:18 VDD! 4.41068e-18 $lvl1=1 $lvl2=1
CB70 B:9 VDD!:8 4.39425e-18 $lvl1=3 $lvl2=2
CB71 B:15 VDD! 3.70961e-18 $lvl1=2 $lvl2=1
CB72 B:16 VDD!:23 3.34397e-18 $lvl1=1 $lvl2=1
CB73 B:16 VDD!:16 3.13379e-18 $lvl1=1 $lvl2=2
CB74 B:13 VDD!:16 2.56896e-18 $lvl1=2 $lvl2=2
CB75 B:13 VDD!:8 1.81258e-18 $lvl1=2 $lvl2=2
CB76 Mmp1:g VDD!:16 1.57633e-18 $lvl1=3 $lvl2=2
CB77 B:15 VDD!:1 1.32329e-18 $lvl1=2 $lvl2=2
CB78 B:16 VDD!:1 1.22249e-18 $lvl1=1 $lvl2=2
CB79 B:9 Mmp0:s 1.20971e-18 $lvl1=3 $lvl2=4
CB80 B:12 VDD!:8 1.2029e-18 $lvl1=2 $lvl2=2
CB81 B:18 VDD!:16 1.07095e-18 $lvl1=1 $lvl2=2
CB82 B:12 VDD! 8.88615e-19 $lvl1=2 $lvl2=1
CB83 B:16 VDD!:24 7.09807e-19 $lvl1=1 $lvl2=1
CB84 B:9 Mmp2:s 6.06006e-19 $lvl1=3 $lvl2=4
CB85 B:13 VDD! 5.39918e-19 $lvl1=2 $lvl2=1
CB86 B:16 VDD! 8.76681e-18 $lvl1=1 $lvl2=1
CB87 B:12 VDD!:16 8.8054e-18 $lvl1=2 $lvl2=2
CB88 B:16 VDD!:8 7.98392e-18 $lvl1=1 $lvl2=2
CB89 B:9 VDD! 1.5132e-17 $lvl1=3 $lvl2=1
CB90 Mmp1:g VDD!:8 1.29121e-16 $lvl1=3 $lvl2=2
CB91 B:15 VDD!:8 4.4541e-18 $lvl1=2 $lvl2=2
CB92 B:9 VDD!:16 7.00327e-18 $lvl1=3 $lvl2=2
CB93 Mmp1:g VDD!:10 8.40831e-18 $lvl1=3 $lvl2=2
CB94 B:15 D 3.18624e-18 $lvl1=2 $lvl2=1
CB95 B:18 D 2.01665e-18 $lvl1=1 $lvl2=1
CB96 B:15 D:13 1.40319e-18 $lvl1=2 $lvl2=2
CB97 B:15 D:9 1.34044e-18 $lvl1=2 $lvl2=3
CB98 B:9 D:9 1.1174e-18 $lvl1=3 $lvl2=3
CB99 B:9 D 7.67528e-19 $lvl1=3 $lvl2=1
CB100 B:9 D:13 7.59544e-19 $lvl1=3 $lvl2=2
CB101 B:18 D:13 7.09047e-19 $lvl1=1 $lvl2=2
CB102 B:18 D:18 6.24948e-19 $lvl1=1 $lvl2=1
CB103 B:15 D:8 5.8152e-19 $lvl1=2 $lvl2=3
CB104 B:16 D:18 4.97035e-19 $lvl1=1 $lvl2=1
CB105 B:16 D 4.30792e-18 $lvl1=1 $lvl2=1
CB106 B:18 C:18 4.0269e-18 $lvl1=1 $lvl2=1
CB107 Mmn1:g C:9 2.55133e-18 $lvl1=3 $lvl2=3
CB108 B:13 C 2.49722e-18 $lvl1=2 $lvl2=1
CB109 B:9 C:8 1.78893e-18 $lvl1=3 $lvl2=3
CB110 B:9 C 1.42705e-18 $lvl1=3 $lvl2=1
CB111 Mmn1:g C:14 1.2457e-18 $lvl1=3 $lvl2=2
CB112 B:15 C:8 9.55406e-19 $lvl1=2 $lvl2=3
CB113 B:18 C:14 7.09034e-19 $lvl1=1 $lvl2=2
CB114 B:15 C 7.57254e-18 $lvl1=2 $lvl2=1
CB115 B:16 C 1.60019e-17 $lvl1=1 $lvl2=1
CB116 B:18 C 5.27306e-17 $lvl1=1 $lvl2=1
ReB14 B:16 B 0.237981 $metal1  $L=0.495 $W=0.260000 $SI_W=0.26 $TYPE=10 $DIR=1 $LLX=1.250000 $LLY=2.610000 $URX=1.510000 $URY=3.105000 $lvl=1
ReB15 B B:17 0.074519 $metal1  $L=0.155 $W=0.260000 $SI_W=0.26 $TYPE=10 $DIR=1 $LLX=1.265000 $LLY=2.455000 $URX=1.525000 $URY=2.610000 $lvl=1
ReB16 B:17 B:18 0.283654 $metal1  $L=0.59 $W=0.260000 $SI_W=0.26 $TYPE=10 $DIR=1 $LLX=1.250000 $LLY=1.865000 $URX=1.510000 $URY=2.455000 $lvl=1
RfB17 B:12 B:13 12.423529 $li  $L=0.165 $W=0.170000 $SI_W=0.17 $TYPE=10 $DIR=0 $LLX=1.385000 $LLY=2.370000 $URX=1.550000 $URY=2.540000 $lvl=2
RfB18 B:13 B:14 4.517647 $li  $L=0.06 $W=1000000 $SI_W=1000000 $TYPE=1,10 $DIR=0 $LLX=1.325000 $LLY=2.370000 $URX=1.385000 $URY=2.540000 $lvl=2
RfB19 B:14 B:15 27.858826 $li  $L=0.37 $W=0.170000 $SI_W=0.17 $TYPE=10 $DIR=0 $LLX=0.955000 $LLY=2.370000 $URX=1.325000 $URY=2.540000 $lvl=2
RgB20 B:8 Mmp1:g 173.519989 $poly  $L=0.54 $W=0.150000 $SI_W=0.15 $TYPE=10 $DIR=1 $LLX=1.260000 $LLY=3.355000 $URX=1.410000 $URY=3.895000 $lvl=3
RgB21 Mmp1:g B:9 270.359070 $poly  $L=0.9 $W=0.150000 $SI_W=0.15 $TYPE=10 $DIR=1 $LLX=1.260000 $LLY=2.455000 $URX=1.410000 $URY=3.355000 $lvl=3
RgB22 B:9 B:10 34.134449 $poly  $L=0.1645 $W=0.270000 $SI_W=0.27 $TYPE=10 $DIR=1 $LLX=1.190000 $LLY=2.290500 $URX=1.460000 $URY=2.455000 $lvl=3
RgB23 B:10 Mmn1:g 540.687988 $poly  $L=1.6825 $W=0.150000 $SI_W=0.15 $TYPE=10 $DIR=1 $LLX=1.260000 $LLY=0.607500 $URX=1.410000 $URY=2.290000 $lvl=3
RgB24 Mmn1:g B:11 116.483322 $poly  $L=0.3625 $W=0.150000 $SI_W=0.15 $TYPE=10 $DIR=1 $LLX=1.260000 $LLY=0.245000 $URX=1.410000 $URY=0.607500 $lvl=3
RjB25 B:13 B:17 152.000000 $mcon  $L=0.17 $W=0.17 $A=0.0289 $VC=0 $SAVL=0 $SAVC=0 $SI_A=0.0289 $COVER_DIR=0 $LLX=0.000000 $LLY=0.000000 $URX=0.170000 $URY=0.170000 $lvl=6
RiB26 B:9 B:14 15.000000 $licon  $L=0.17 $W=0.17 $A=0.0289 $VC=0 $SAVL=0 $SAVC=0 $SI_A=0.0289 $COVER_DIR=0 $LLX=0.000000 $LLY=0.000000 $URX=0.170000 $URY=0.170000 $lvl=7
*
*|NET net124 2.73417e-16
*|I (Mmn1:d Mmn1 d X 0 1.2595 0.6075) // $llx=1.2595 $lly=0.6075 $urx=1.2595 $ury=0.6075 $lvl=4
*|I (Mmn2:s Mmn2 s X 0 0.9805 0.6075) // $llx=0.9805 $lly=0.6075 $urx=0.9805 $ury=0.6075 $lvl=4
*|S (net124 1.1200 0.8195) // $llx=1.1200 $lly=0.8195 $urx=1.1200 $ury=0.8195 $lvl=2
*|S (net124:3 1.1200 0.6100) // $llx=1.1200 $lly=0.6100 $urx=1.1200 $ury=0.6100 $lvl=2
*|S (net124:4 1.1200 0.3950) // $llx=1.1200 $lly=0.3950 $urx=1.1200 $ury=0.3950 $lvl=2
CJ1 Mmn1:d VSS! 1.37096e-18 $lvl=4
CJ2 net124:3 VSS! 4.68011e-18 $lvl=2
CJ3 net124:4 VSS! 1.45274e-18 $lvl=2
CJ4 net124 VSS! 2.76227e-18 $lvl=2
CJ5 net124 net120 1.53578e-18 $lvl1=2 $lvl2=2
CJ6 net124:3 net120:4 2.1342e-18 $lvl1=2 $lvl2=2
CJ7 net124:4 net120:3 2.38721e-18 $lvl1=2 $lvl2=2
CJ8 net124:3 net120 2.34444e-18 $lvl1=2 $lvl2=2
CJ9 net124:4 net120:4 1.51963e-18 $lvl1=2 $lvl2=2
CJ10 net124 net120:3 2.21815e-18 $lvl1=2 $lvl2=2
CJ11 net124:3 net120:3 1.62994e-17 $lvl1=2 $lvl2=2
CJ12 net124:3 VSS!:7 7.92088e-19 $lvl1=2 $lvl2=4
CJ13 net124:3 VSS!:12 5.85761e-19 $lvl1=2 $lvl2=2
CJ14 net124:4 VSS!:14 1.63174e-18 $lvl1=2 $lvl2=1
CJ15 net124:3 VSS!:14 1.62886e-18 $lvl1=2 $lvl2=1
CJ16 Mmn1:d VSS!:6 1.88329e-18 $lvl1=4 $lvl2=2
CJ17 net124:4 VSS!:6 1.30737e-17 $lvl1=2 $lvl2=2
CJ18 net124:3 VSS!:6 1.0427e-17 $lvl1=2 $lvl2=2
RfJ169 net124 net124:3 15.774117 $li  $L=0.2095 $W=0.170000 $SI_W=0.17 $TYPE=10 $DIR=1 $LLX=1.035000 $LLY=0.610000 $URX=1.205000 $URY=0.819500 $lvl=2
RfJ170 net124:3 net124:4 16.188236 $li  $L=0.215 $W=0.170000 $SI_W=0.17 $TYPE=10 $DIR=1 $LLX=1.035000 $LLY=0.395000 $URX=1.205000 $URY=0.610000 $lvl=2
RhJ171 Mmn1:d net124:3 15.000000 $licon_diff  $L=0.17 $W=0.17 $A=0.0289 $VC=0 $SAVL=0 $SAVC=0 $SI_A=0.0289 $COVER_DIR=0 $LLX=0.000000 $LLY=0.000000 $URX=0.170000 $URY=0.170000 $lvl=5
RmwJ172 Mmn2:s Mmn1:d 0.001000 $diff $W=1000000 $SI_W=1000000 $TYPE=1 $DIR=0
*
*|NET C 9.4772e-16
*|P (C X 0 0.9350 1.8050) // $llx=0.9350 $lly=1.8050 $urx=0.9350 $ury=1.8050 $lvl=1
*|I (Mmp2:g Mmp2 g X 0 0.9050 3.3550) // $llx=0.9050 $lly=3.3550 $urx=0.9050 $ury=3.3550 $lvl=3
*|I (Mmn2:g Mmn2 g X 0 0.9050 0.6075) // $llx=0.9050 $lly=0.6075 $urx=0.9050 $ury=0.6075 $lvl=3
*|S (C:8 0.9050 3.8950) // $llx=0.9050 $lly=3.8950 $urx=0.9050 $ury=3.8950 $lvl=3
*|S (C:9 0.9100 1.0950) // $llx=0.9100 $lly=1.0950 $urx=0.9100 $ury=1.0950 $lvl=3
*|S (C:10 0.9100 0.9300) // $llx=0.9100 $lly=0.9300 $urx=0.9100 $ury=0.9300 $lvl=3
*|S (C:11 0.9050 0.2450) // $llx=0.9050 $lly=0.2450 $urx=0.9050 $ury=0.2450 $lvl=3
*|S (C:12 1.2850 1.0950) // $llx=1.2850 $lly=1.0950 $urx=1.2850 $ury=1.0950 $lvl=2
*|S (C:13 0.9250 1.0950) // $llx=0.9250 $lly=1.0950 $urx=0.9250 $ury=1.0950 $lvl=2
*|S (C:14 0.9100 1.0950) // $llx=0.9100 $lly=1.0950 $urx=0.9100 $ury=1.0950 $lvl=2
*|S (C:15 0.7300 1.0950) // $llx=0.7300 $lly=1.0950 $urx=0.7300 $ury=1.0950 $lvl=2
*|S (C:16 0.9200 2.2950) // $llx=0.9200 $lly=2.2950 $urx=0.9200 $ury=2.2950 $lvl=1
*|S (C:17 0.9250 1.0950) // $llx=0.9250 $lly=1.0950 $urx=0.9250 $ury=1.0950 $lvl=1
*|S (C:18 0.9200 0.8600) // $llx=0.9200 $lly=0.8600 $urx=0.9200 $ury=0.8600 $lvl=1
CC1 Mmn2:g VSS! 2.10162e-18 $lvl=3
CC2 C:8 VSS! 1.98365e-18 $lvl=3
CC3 C:18 VSS! 7.95258e-18 $lvl=1
CC4 C:14 VSS! 6.21855e-18 $lvl=2
CC5 C:15 VSS! 3.37996e-18 $lvl=2
CC6 C:13 VSS! 3.95101e-18 $lvl=2
CC7 C:9 VSS! 1.79324e-17 $lvl=3
CC8 C VSS! 8.30728e-18 $lvl=1
CC9 C:9 net120:3 7.34661e-19 $lvl1=3 $lvl2=2
CC10 C:18 net120:3 6.96608e-19 $lvl1=1 $lvl2=2
CC11 C:18 net120 6.73265e-19 $lvl1=1 $lvl2=2
CC12 C:9 net120 3.97589e-19 $lvl1=3 $lvl2=2
CC13 Mmn2:g net120:3 3.5164e-19 $lvl1=3 $lvl2=2
CC14 C:9 Mmn1:s 2.9945e-19 $lvl1=3 $lvl2=4
CC15 C:14 net120:3 2.90185e-18 $lvl1=2 $lvl2=2
CC16 C:14 net120 3.77511e-18 $lvl1=2 $lvl2=2
CC17 C:13 net124:3 1.28303e-18 $lvl1=2 $lvl2=2
CC18 C:18 net124 1.22401e-18 $lvl1=1 $lvl2=2
CC19 C:9 Mmn1:d 1.15281e-18 $lvl1=3 $lvl2=4
CC20 Mmn2:g net124:4 3.92904e-19 $lvl1=3 $lvl2=2
CC21 Mmn2:g net124 3.68392e-19 $lvl1=3 $lvl2=2
CC22 C:14 net124 1.16868e-17 $lvl1=2 $lvl2=2
CC23 C:9 net124 2.44667e-18 $lvl1=3 $lvl2=2
CC24 C:13 net124 1.654e-18 $lvl1=2 $lvl2=2
CC25 C:14 net124:3 4.76427e-18 $lvl1=2 $lvl2=2
CC26 C:18 net124:3 1.57969e-18 $lvl1=1 $lvl2=2
CC27 C:9 net124:3 5.17854e-18 $lvl1=3 $lvl2=2
CC28 Mmn2:g net124:3 6.49581e-17 $lvl1=3 $lvl2=2
CC29 C:14 net132:3 1.19828e-18 $lvl1=2 $lvl2=2
CC30 C:18 net132:3 1.17851e-18 $lvl1=1 $lvl2=2
CC31 C:9 Mmn2:d 1.10567e-18 $lvl1=3 $lvl2=4
CC32 C:18 net132 9.9851e-19 $lvl1=1 $lvl2=2
CC33 C:13 net132 2.44501e-18 $lvl1=2 $lvl2=2
CC34 C:9 net132 2.72027e-18 $lvl1=3 $lvl2=2
CC35 C:9 net132:3 5.2345e-18 $lvl1=3 $lvl2=2
CC36 C:14 net132 2.03064e-18 $lvl1=2 $lvl2=2
CC37 Mmn2:g net132:3 6.4343e-17 $lvl1=3 $lvl2=2
CC38 C:15 net132:3 1.58225e-18 $lvl1=2 $lvl2=2
CC39 C:15 net132 4.9476e-18 $lvl1=2 $lvl2=2
CC40 C:13 net132:3 1.38936e-18 $lvl1=2 $lvl2=2
CC41 C net100:42 2.59258e-18 $lvl1=1 $lvl2=1
CC42 C:14 net100:51 2.16001e-18 $lvl1=2 $lvl2=1
CC43 C:13 net100:54 2.07127e-18 $lvl1=2 $lvl2=1
CC44 C:15 net100:24 1.7394e-18 $lvl1=2 $lvl2=2
CC45 C:9 net100:24 1.6298e-18 $lvl1=3 $lvl2=2
CC46 C:18 net100:50 1.59118e-18 $lvl1=1 $lvl2=1
CC47 C net100:54 1.1849e-18 $lvl1=1 $lvl2=1
CC48 C:14 net100:54 1.06232e-18 $lvl1=2 $lvl2=1
CC49 C net100:51 1.0205e-18 $lvl1=1 $lvl2=1
CC50 C:8 net100:32 9.96214e-19 $lvl1=3 $lvl2=2
CC51 C net100:32 8.95098e-19 $lvl1=1 $lvl2=2
CC52 C:13 net100:51 8.01454e-19 $lvl1=2 $lvl2=1
CC53 C net100:44 7.04456e-19 $lvl1=1 $lvl2=1
CC54 C net100:48 6.51585e-19 $lvl1=1 $lvl2=1
CC55 C:13 net100:24 6.02424e-19 $lvl1=2 $lvl2=2
CC56 C:18 net100:48 5.55388e-19 $lvl1=1 $lvl2=1
CC57 C:15 net100:54 5.34424e-19 $lvl1=2 $lvl2=1
CC58 C net100:28 5.11117e-19 $lvl1=1 $lvl2=2
CC59 C net100:50 5.02136e-19 $lvl1=1 $lvl2=1
CC60 Mmn2:g net100:24 4.74636e-19 $lvl1=3 $lvl2=2
CC61 C:14 net100:50 4.46259e-19 $lvl1=2 $lvl2=1
CC62 C:18 net100:24 4.11038e-19 $lvl1=1 $lvl2=2
CC63 C net100:47 3.4509e-19 $lvl1=1 $lvl2=1
CC64 C:8 net100:33 3.01245e-19 $lvl1=3 $lvl2=2
CC65 C:9 net100:54 2.78584e-19 $lvl1=3 $lvl2=1
CC66 C:14 net100:24 2.58278e-19 $lvl1=2 $lvl2=2
CC67 C:9 Mmn3:d 2.36254e-19 $lvl1=3 $lvl2=4
CC68 C:18 net100:54 4.08001e-17 $lvl1=1 $lvl2=1
CC69 C:18 net100:51 1.21674e-17 $lvl1=1 $lvl2=1
CC70 C:8 net100:28 1.28567e-16 $lvl1=3 $lvl2=2
CC71 C:18 VSS!:14 3.05231e-18 $lvl1=1 $lvl2=1
CC72 C:14 VSS!:12 1.88918e-18 $lvl1=2 $lvl2=2
CC73 C VSS!:14 9.63671e-19 $lvl1=1 $lvl2=1
CC74 Mmn2:g VSS!:6 9.96658e-18 $lvl1=3 $lvl2=2
CC75 C:8 VDD!:4 1.61334e-18 $lvl1=3 $lvl2=2
CC76 C:9 VDD! 1.45319e-18 $lvl1=3 $lvl2=1
CC77 C VDD!:1 1.39539e-18 $lvl1=1 $lvl2=2
CC78 C VDD!:23 1.2265e-18 $lvl1=1 $lvl2=1
CC79 C:8 VDD!:1 1.02292e-18 $lvl1=3 $lvl2=2
CC80 C VDD!:8 8.24203e-19 $lvl1=1 $lvl2=2
CC81 C:18 VDD! 6.60717e-18 $lvl1=1 $lvl2=1
CC82 C:8 VDD!:10 7.35668e-18 $lvl1=3 $lvl2=2
CC83 C:8 VDD!:8 1.28492e-16 $lvl1=3 $lvl2=2
CC84 C VDD! 1.00179e-17 $lvl1=1 $lvl2=1
CC85 C:15 D:18 3.5728e-18 $lvl1=2 $lvl2=1
CC86 C:9 Mmn3:g 2.7021e-18 $lvl1=3 $lvl2=3
CC87 C:18 D:13 2.57045e-18 $lvl1=1 $lvl2=2
CC88 C:9 D:13 2.38436e-18 $lvl1=3 $lvl2=2
CC89 C:15 D:13 2.09442e-18 $lvl1=2 $lvl2=2
CC90 C D:9 2.05554e-18 $lvl1=1 $lvl2=3
CC91 C:15 D:9 1.56845e-18 $lvl1=2 $lvl2=3
CC92 C:13 D:13 1.46653e-18 $lvl1=2 $lvl2=2
CC93 C:14 D:13 1.43455e-18 $lvl1=2 $lvl2=2
CC94 C:9 D:18 9.73808e-19 $lvl1=3 $lvl2=1
CC95 C:14 D:9 9.36768e-19 $lvl1=2 $lvl2=3
CC96 C D:15 6.69662e-19 $lvl1=1 $lvl2=2
CC97 C:9 D:15 6.26856e-19 $lvl1=3 $lvl2=2
CC98 C:14 D:18 5.68742e-19 $lvl1=2 $lvl2=1
CC99 C:15 Mmn3:g 5.35972e-19 $lvl1=2 $lvl2=3
CC100 C:15 D:15 4.97253e-19 $lvl1=2 $lvl2=2
CC101 C:18 D 4.7511e-18 $lvl1=1 $lvl2=1
CC102 C:13 D:18 4.31685e-18 $lvl1=2 $lvl2=1
CC103 C D:13 8.34024e-18 $lvl1=1 $lvl2=2
CC104 C D:18 9.35533e-18 $lvl1=1 $lvl2=1
CC105 C:18 D:18 5.69721e-17 $lvl1=1 $lvl2=1
CC106 C D 7.33672e-17 $lvl1=1 $lvl2=1
CC107 C:9 D:9 4.49422e-18 $lvl1=3 $lvl2=3
ReC27 C:16 C 0.235577 $metal1  $L=0.49 $W=0.260000 $SI_W=0.26 $TYPE=10 $DIR=1 $LLX=0.790000 $LLY=1.805000 $URX=1.050000 $URY=2.295000 $lvl=1
ReC28 C C:17 0.341346 $metal1  $L=0.71 $W=0.260000 $SI_W=0.26 $TYPE=10 $DIR=1 $LLX=0.790000 $LLY=1.095000 $URX=1.050000 $URY=1.805000 $lvl=1
ReC29 C:17 C:18 0.112981 $metal1  $L=0.235 $W=0.260000 $SI_W=0.26 $TYPE=10 $DIR=1 $LLX=0.790000 $LLY=0.860000 $URX=1.050000 $URY=1.095000 $lvl=1
RfC30 C:12 C:13 27.105885 $li  $L=0.36 $W=0.170000 $SI_W=0.17 $TYPE=10 $DIR=0 $LLX=0.925000 $LLY=1.010000 $URX=1.285000 $URY=1.180000 $lvl=2
RfC31 C:13 C:14 1.129412 $li  $L=0.015 $W=1000000 $SI_W=1000000 $TYPE=1,10 $DIR=0 $LLX=0.910000 $LLY=1.010000 $URX=0.925000 $URY=1.180000 $lvl=2
RfC32 C:14 C:15 13.552942 $li  $L=0.18 $W=0.170000 $SI_W=0.17 $TYPE=10 $DIR=0 $LLX=0.730000 $LLY=1.010000 $URX=0.910000 $URY=1.180000 $lvl=2
RgC33 C:8 Mmp2:g 173.519989 $poly  $L=0.54 $W=0.150000 $SI_W=0.15 $TYPE=10 $DIR=1 $LLX=0.830000 $LLY=3.355000 $URX=0.980000 $URY=3.895000 $lvl=3
RgC34 Mmp2:g C:9 707.372437 $poly  $L=2.26 $W=0.150000 $SI_W=0.15 $TYPE=10 $DIR=1 $LLX=0.830000 $LLY=1.095000 $URX=0.980000 $URY=3.355000 $lvl=3
RgC35 C:9 C:10 34.134449 $poly  $L=0.1645 $W=0.270000 $SI_W=0.27 $TYPE=10 $DIR=1 $LLX=0.775000 $LLY=0.930500 $URX=1.045000 $URY=1.095000 $lvl=3
RgC36 C:10 Mmn2:g 103.674629 $poly  $L=0.3225 $W=0.150000 $SI_W=0.15 $TYPE=10 $DIR=1 $LLX=0.830000 $LLY=0.607500 $URX=0.980000 $URY=0.930000 $lvl=3
RgC37 Mmn2:g C:11 116.483322 $poly  $L=0.3625 $W=0.150000 $SI_W=0.15 $TYPE=10 $DIR=1 $LLX=0.830000 $LLY=0.245000 $URX=0.980000 $URY=0.607500 $lvl=3
RjC38 C:13 C:17 152.000000 $mcon  $L=0.17 $W=0.17 $A=0.0289 $VC=0 $SAVL=0 $SAVC=0 $SI_A=0.0289 $COVER_DIR=0 $LLX=0.000000 $LLY=0.000000 $URX=0.170000 $URY=0.170000 $lvl=6
RiC39 C:9 C:14 15.000000 $licon  $L=0.17 $W=0.17 $A=0.0289 $VC=0 $SAVL=0 $SAVC=0 $SI_A=0.0289 $COVER_DIR=0 $LLX=0.000000 $LLY=0.000000 $URX=0.170000 $URY=0.170000 $lvl=7
*
*|NET A 8.61733e-16
*|P (A X 0 1.8550 1.8050) // $llx=1.8550 $lly=1.8050 $urx=1.8550 $ury=1.8050 $lvl=1
*|I (Mmp0:g Mmp0 g X 0 1.7650 3.3550) // $llx=1.7650 $lly=3.3550 $urx=1.7650 $ury=3.3550 $lvl=3
*|I (Mmn0:g Mmn0 g X 0 1.7650 0.6075) // $llx=1.7650 $lly=0.6075 $urx=1.7650 $ury=0.6075 $lvl=3
*|S (A:8 1.7650 3.8950) // $llx=1.7650 $lly=3.8950 $urx=1.7650 $ury=3.8950 $lvl=3
*|S (A:9 1.7600 1.5350) // $llx=1.7600 $lly=1.5350 $urx=1.7600 $ury=1.5350 $lvl=3
*|S (A:10 1.7600 1.3700) // $llx=1.7600 $lly=1.3700 $urx=1.7600 $ury=1.3700 $lvl=3
*|S (A:11 1.7650 0.2450) // $llx=1.7650 $lly=0.2450 $urx=1.7650 $ury=0.2450 $lvl=3
*|S (A:12 2.0200 1.5350) // $llx=2.0200 $lly=1.5350 $urx=2.0200 $ury=1.5350 $lvl=2
*|S (A:13 1.8450 1.5350) // $llx=1.8450 $lly=1.5350 $urx=1.8450 $ury=1.5350 $lvl=2
*|S (A:14 1.7600 1.5350) // $llx=1.7600 $lly=1.5350 $urx=1.7600 $ury=1.5350 $lvl=2
*|S (A:15 1.3850 1.5350) // $llx=1.3850 $lly=1.5350 $urx=1.3850 $ury=1.5350 $lvl=2
*|S (A:16 1.8400 2.6650) // $llx=1.8400 $lly=2.6650 $urx=1.8400 $ury=2.6650 $lvl=1
*|S (A:17 1.8450 1.5350) // $llx=1.8450 $lly=1.5350 $urx=1.8450 $ury=1.5350 $lvl=1
*|S (A:18 1.8400 1.2300) // $llx=1.8400 $lly=1.2300 $urx=1.8400 $ury=1.2300 $lvl=1
CA1 Mmn0:g VSS! 2.1592e-18 $lvl=3
CA2 Mmp0:g VSS! 1.35649e-18 $lvl=3
CA3 A:17 VSS! 5.67058e-18 $lvl=1
CA4 A:18 VSS! 4.41799e-18 $lvl=1
CA5 A:12 VSS! 4.97161e-18 $lvl=2
CA6 A:15 VSS! 8.43939e-18 $lvl=2
CA7 A:13 VSS! 3.09267e-18 $lvl=2
CA8 A:9 VSS! 2.19385e-17 $lvl=3
CA9 A VSS! 6.74921e-18 $lvl=1
CA10 A:15 net120 8.90161e-19 $lvl1=2 $lvl2=2
CA11 A:15 net120:3 7.81074e-19 $lvl1=2 $lvl2=2
CA12 A:9 net120:3 7.76503e-19 $lvl1=3 $lvl2=2
CA13 A:9 net120 7.434e-19 $lvl1=3 $lvl2=2
CA14 A:18 net120 7.09685e-19 $lvl1=1 $lvl2=2
CA15 A:18 net120:3 6.24877e-19 $lvl1=1 $lvl2=2
CA16 Mmn0:g net120 6.10163e-19 $lvl1=3 $lvl2=2
CA17 Mmn0:g net120:4 5.06808e-19 $lvl1=3 $lvl2=2
CA18 A:13 net120 4.15979e-19 $lvl1=2 $lvl2=2
CA19 A:13 net120:3 3.16585e-19 $lvl1=2 $lvl2=2
CA20 Mmn0:g net120:3 6.71525e-17 $lvl1=3 $lvl2=2
CA21 A:18 net100:48 4.13618e-18 $lvl1=1 $lvl2=1
CA22 A net100:40 3.76394e-18 $lvl1=1 $lvl2=2
CA23 A:13 net100:41 3.45141e-18 $lvl1=2 $lvl2=2
CA24 A:12 net100:17 3.2109e-18 $lvl1=2 $lvl2=3
CA25 A:9 net100:41 3.13885e-18 $lvl1=3 $lvl2=2
CA26 A:13 net100:50 2.3177e-18 $lvl1=2 $lvl2=1
CA27 A:12 net100:48 2.03906e-18 $lvl1=2 $lvl2=1
CA28 A:13 net100:48 1.97541e-18 $lvl1=2 $lvl2=1
CA29 A:9 net100 1.86938e-18 $lvl1=3 $lvl2=3
CA30 A:12 net100:50 1.77404e-18 $lvl1=2 $lvl2=1
CA31 A net100:44 1.75955e-18 $lvl1=1 $lvl2=1
CA32 A:17 net100:51 1.57959e-18 $lvl1=1 $lvl2=1
CA33 A:12 net100:40 1.48209e-18 $lvl1=2 $lvl2=2
CA34 A net100:50 1.41074e-18 $lvl1=1 $lvl2=1
CA35 A:12 net100:39 1.33741e-18 $lvl1=2 $lvl2=2
CA36 A net100:37 1.1242e-18 $lvl1=1 $lvl2=2
CA37 A:13 net100:40 9.68953e-19 $lvl1=2 $lvl2=2
CA38 A:15 net100:41 8.8071e-19 $lvl1=2 $lvl2=2
CA39 A net100:45 8.39768e-19 $lvl1=1 $lvl2=1
CA40 A:15 net100:51 8.23644e-19 $lvl1=2 $lvl2=1
CA41 Mmp0:g net100:37 7.68491e-19 $lvl1=3 $lvl2=2
CA42 A:18 net100:54 7.58638e-19 $lvl1=1 $lvl2=1
CA43 A net100:42 6.31398e-19 $lvl1=1 $lvl2=1
CA44 A net100:51 6.25589e-19 $lvl1=1 $lvl2=1
CA45 A net100:17 6.06398e-19 $lvl1=1 $lvl2=3
CA46 A:12 net100 6.04792e-19 $lvl1=2 $lvl2=3
CA47 A:13 net100:51 5.67758e-19 $lvl1=2 $lvl2=1
CA48 A:17 net100:40 5.57579e-19 $lvl1=1 $lvl2=2
CA49 A:15 net100:50 4.93808e-19 $lvl1=2 $lvl2=1
CA50 A:13 net100:17 4.87609e-19 $lvl1=2 $lvl2=3
CA51 A net100:39 4.76916e-19 $lvl1=1 $lvl2=2
CA52 A:9 net100:39 4.46925e-19 $lvl1=3 $lvl2=2
CA53 A:9 net100:50 4.11924e-19 $lvl1=3 $lvl2=1
CA54 A:9 net100:22 4.0181e-19 $lvl1=3 $lvl2=3
CA55 A net100:33 3.8602e-19 $lvl1=1 $lvl2=2
CA56 A:13 net100:39 3.36633e-19 $lvl1=2 $lvl2=2
CA57 A:17 net100:54 3.33614e-19 $lvl1=1 $lvl2=1
CA58 A net100:54 3.28339e-19 $lvl1=1 $lvl2=1
CA59 A:9 net100:40 3.24587e-19 $lvl1=3 $lvl2=2
CA60 A:9 net100:48 3.16658e-19 $lvl1=3 $lvl2=1
CA61 A:15 net100:17 3.1278e-19 $lvl1=2 $lvl2=3
CA62 A:17 net100:41 2.76607e-19 $lvl1=1 $lvl2=2
CA63 A:17 net100:48 1.82799e-17 $lvl1=1 $lvl2=1
CA64 A net100:48 5.48417e-17 $lvl1=1 $lvl2=1
CA65 A net100:46 2.18657e-17 $lvl1=1 $lvl2=1
CA66 A net100:47 1.90428e-17 $lvl1=1 $lvl2=1
CA67 A:17 net100:50 7.46449e-18 $lvl1=1 $lvl2=1
CA68 A net100:41 5.84045e-18 $lvl1=1 $lvl2=2
CA69 A:9 net100:17 5.37451e-18 $lvl1=3 $lvl2=3
CA70 A:12 net100:41 4.7668e-18 $lvl1=2 $lvl2=2
CA71 Mmp0:g net100:33 1.31416e-16 $lvl1=3 $lvl2=2
CA72 A:18 net100:51 7.48859e-18 $lvl1=1 $lvl2=1
CA73 A:18 net100:50 3.28413e-17 $lvl1=1 $lvl2=1
CA74 A:13 VSS!:12 4.17575e-18 $lvl1=2 $lvl2=2
CA75 A:18 VSS!:12 3.65372e-18 $lvl1=1 $lvl2=2
CA76 A:9 Mmn4:s 1.91372e-18 $lvl1=3 $lvl2=4
CA77 A:15 VSS!:12 1.81879e-18 $lvl1=2 $lvl2=2
CA78 A:18 VSS!:14 1.15054e-18 $lvl1=1 $lvl2=1
CA79 Mmn0:g VSS!:12 4.13124e-17 $lvl1=3 $lvl2=2
CA80 Mmn0:g VSS!:6 9.34044e-18 $lvl1=3 $lvl2=2
CA81 A:9 VSS!:12 8.51487e-18 $lvl1=3 $lvl2=2
CA82 A:12 VSS!:12 6.02519e-18 $lvl1=2 $lvl2=2
CA83 A:17 VDD! 2.71551e-18 $lvl1=1 $lvl2=1
CA84 A:18 VDD! 2.28681e-18 $lvl1=1 $lvl2=1
CA85 A:9 VDD! 2.27858e-18 $lvl1=3 $lvl2=1
CA86 A:9 VDD!:16 1.63783e-18 $lvl1=3 $lvl2=2
CA87 A VDD!:23 1.41682e-18 $lvl1=1 $lvl2=1
CA88 A:15 VDD! 9.80106e-19 $lvl1=2 $lvl2=1
CA89 A:15 VDD!:16 6.4432e-19 $lvl1=2 $lvl2=2
CA90 Mmp0:g VDD!:8 6.14752e-19 $lvl1=3 $lvl2=2
CA91 A:9 Mmp0:s 5.57711e-19 $lvl1=3 $lvl2=4
CA92 A:12 VDD!:16 4.98994e-19 $lvl1=2 $lvl2=2
CA93 Mmp0:g VDD!:16 6.8809e-17 $lvl1=3 $lvl2=2
CA94 Mmp0:g VDD!:10 8.64537e-18 $lvl1=3 $lvl2=2
CA95 A VDD!:16 1.68306e-17 $lvl1=1 $lvl2=2
CA96 A VDD! 6.53374e-18 $lvl1=1 $lvl2=1
CA97 A Y 2.58436e-18 $lvl1=1 $lvl2=1
CA98 A:12 Y:6 2.10941e-18 $lvl1=2 $lvl2=2
CA99 A Y:11 1.30756e-18 $lvl1=1 $lvl2=1
CA100 A:9 Y:6 1.08471e-18 $lvl1=3 $lvl2=2
CA101 A Y:1 9.34327e-19 $lvl1=1 $lvl2=2
CA102 A:17 Y 8.80283e-19 $lvl1=1 $lvl2=1
CA103 A:18 Y 6.82582e-19 $lvl1=1 $lvl2=1
CA104 A Y:5 5.77427e-19 $lvl1=1 $lvl2=2
CA105 A:13 Y:6 5.56725e-19 $lvl1=2 $lvl2=2
CA106 A:17 Y:12 5.47931e-19 $lvl1=1 $lvl2=1
CA107 A Y:12 5.3978e-19 $lvl1=1 $lvl2=1
CA108 A:18 Y:12 5.26239e-19 $lvl1=1 $lvl2=1
CA109 A:15 C 3.65146e-18 $lvl1=2 $lvl2=1
CA110 A:17 C:18 2.93897e-18 $lvl1=1 $lvl2=1
CA111 A C 2.93506e-18 $lvl1=1 $lvl2=1
CA112 A:17 C 2.85303e-18 $lvl1=1 $lvl2=1
CA113 A:15 C:18 2.59671e-18 $lvl1=2 $lvl2=1
CA114 A:15 C:9 2.1016e-18 $lvl1=2 $lvl2=3
CA115 A:9 C:14 1.94964e-18 $lvl1=3 $lvl2=2
CA116 A:18 C 1.63831e-18 $lvl1=1 $lvl2=1
CA117 A:18 C:14 1.39639e-18 $lvl1=1 $lvl2=2
CA118 A C:18 1.32376e-18 $lvl1=1 $lvl2=1
CA119 A:9 C:9 1.28232e-18 $lvl1=3 $lvl2=3
CA120 A:15 C:13 9.60491e-19 $lvl1=2 $lvl2=2
CA121 A:13 C:14 7.58459e-19 $lvl1=2 $lvl2=2
CA122 A:9 C 6.15163e-19 $lvl1=3 $lvl2=1
CA123 A:13 C:18 5.68137e-19 $lvl1=2 $lvl2=1
CA124 A:13 C 4.99801e-19 $lvl1=2 $lvl2=1
CA125 A:12 C:14 4.65424e-19 $lvl1=2 $lvl2=2
CA126 A:18 C:18 4.65792e-18 $lvl1=1 $lvl2=1
CA127 A:15 C:14 7.27196e-18 $lvl1=2 $lvl2=2
CA128 A:15 B:18 4.29968e-18 $lvl1=2 $lvl2=1
CA129 A B:12 3.37587e-18 $lvl1=1 $lvl2=2
CA130 A:18 B:18 1.79822e-18 $lvl1=1 $lvl2=1
CA131 A:9 B:9 1.58452e-18 $lvl1=3 $lvl2=3
CA132 Mmp0:g B:9 1.41661e-18 $lvl1=3 $lvl2=3
CA133 A:13 B:18 1.39048e-18 $lvl1=2 $lvl2=1
CA134 A:15 B:9 1.30381e-18 $lvl1=2 $lvl2=3
CA135 A B:9 1.03551e-18 $lvl1=1 $lvl2=3
CA136 A:9 Mmn1:g 8.56022e-19 $lvl1=3 $lvl2=3
CA137 A:9 B:18 8.26338e-19 $lvl1=3 $lvl2=1
CA138 A:15 B:15 7.58924e-19 $lvl1=2 $lvl2=2
CA139 A:9 B:12 6.88657e-19 $lvl1=3 $lvl2=2
CA140 A:15 B:13 6.04143e-19 $lvl1=2 $lvl2=2
CA141 A:15 B:12 5.57048e-19 $lvl1=2 $lvl2=2
CA142 A:12 B:18 4.86899e-19 $lvl1=2 $lvl2=1
CA143 A:17 B:16 4.38666e-19 $lvl1=1 $lvl2=1
CA144 A B:16 4.19028e-17 $lvl1=1 $lvl2=1
CA145 A B:18 4.91306e-17 $lvl1=1 $lvl2=1
CA146 A B:13 4.67228e-18 $lvl1=1 $lvl2=2
CA147 A:17 B:18 7.57025e-18 $lvl1=1 $lvl2=1
ReA1 A:16 A 0.413462 $metal1  $L=0.86 $W=0.260000 $SI_W=0.26 $TYPE=10 $DIR=1 $LLX=1.710000 $LLY=1.805000 $URX=1.970000 $URY=2.665000 $lvl=1
ReA2 A A:17 0.129808 $metal1  $L=0.27 $W=0.260000 $SI_W=0.26 $TYPE=10 $DIR=1 $LLX=1.710000 $LLY=1.535000 $URX=1.970000 $URY=1.805000 $lvl=1
ReA3 A:17 A:18 0.146635 $metal1  $L=0.305 $W=0.260000 $SI_W=0.26 $TYPE=10 $DIR=1 $LLX=1.710000 $LLY=1.230000 $URX=1.970000 $URY=1.535000 $lvl=1
RfA4 A:12 A:13 13.176471 $li  $L=0.175 $W=0.170000 $SI_W=0.17 $TYPE=10 $DIR=0 $LLX=1.845000 $LLY=1.450000 $URX=2.020000 $URY=1.620000 $lvl=2
RfA5 A:13 A:14 6.400000 $li  $L=0.085 $W=0.170000 $SI_W=0.17 $TYPE=10 $DIR=0 $LLX=1.760000 $LLY=1.450000 $URX=1.845000 $URY=1.620000 $lvl=2
RfA6 A:14 A:15 28.235294 $li  $L=0.375 $W=0.170000 $SI_W=0.17 $TYPE=10 $DIR=0 $LLX=1.385000 $LLY=1.450000 $URX=1.760000 $URY=1.620000 $lvl=2
RgA7 A:8 Mmp0:g 173.519989 $poly  $L=0.54 $W=0.150000 $SI_W=0.15 $TYPE=10 $DIR=1 $LLX=1.690000 $LLY=3.355000 $URX=1.840000 $URY=3.895000 $lvl=3
RgA8 Mmp0:g A:9 565.985779 $poly  $L=1.82 $W=0.150000 $SI_W=0.15 $TYPE=10 $DIR=1 $LLX=1.690000 $LLY=1.535000 $URX=1.840000 $URY=3.355000 $lvl=3
RgA9 A:9 A:10 34.134449 $poly  $L=0.1645 $W=0.270000 $SI_W=0.27 $TYPE=10 $DIR=1 $LLX=1.625000 $LLY=1.370500 $URX=1.895000 $URY=1.535000 $lvl=3
RgA10 A:10 Mmn0:g 245.061295 $poly  $L=0.7625 $W=0.150000 $SI_W=0.15 $TYPE=10 $DIR=1 $LLX=1.690000 $LLY=0.607500 $URX=1.840000 $URY=1.370000 $lvl=3
RgA11 Mmn0:g A:11 116.483322 $poly  $L=0.3625 $W=0.150000 $SI_W=0.15 $TYPE=10 $DIR=1 $LLX=1.690000 $LLY=0.245000 $URX=1.840000 $URY=0.607500 $lvl=3
RjA12 A:13 A:17 152.000000 $mcon  $L=0.17 $W=0.17 $A=0.0289 $VC=0 $SAVL=0 $SAVC=0 $SI_A=0.0289 $COVER_DIR=0 $LLX=0.000000 $LLY=0.000000 $URX=0.170000 $URY=0.170000 $lvl=6
RiA13 A:9 A:14 15.000000 $licon  $L=0.17 $W=0.17 $A=0.0289 $VC=0 $SAVL=0 $SAVC=0 $SI_A=0.0289 $COVER_DIR=0 $LLX=0.000000 $LLY=0.000000 $URX=0.170000 $URY=0.170000 $lvl=7
*
*|NET VSS! 1.84631e-15
*|P (VSS! X 0 1.5250 0.0050) // $llx=1.5250 $lly=0.0050 $urx=1.5250 $ury=0.0050 $lvl=1
*|I (Mmn4:s Mmn4 s X 0 2.1795 0.7750) // $llx=2.1795 $lly=0.7750 $urx=2.1795 $ury=0.7750 $lvl=4
*|I (Mmn4:b Mmn4 b X 0 2.2550 0.7750) // $llx=2.2550 $lly=0.7750 $urx=2.2550 $ury=0.7750 $lvl=8
*|I (Mmn4@1:s Mmn4@1 s X 0 2.7605 0.7750) // $llx=2.7605 $lly=0.7750 $urx=2.7605 $ury=0.7750 $lvl=4