*
*|DSPF 1.5
*
*|DATE "Wed Jan  8 23:12:16 2025"
*|VENDOR "Cadence Design Systems"
*|PROGRAM "Cadence Quantus Extraction"
*|VERSION "22.1.0-p089 Linux 64 bit - (Thu Jan 19 11:47:08 PST 2023)"
*|DESIGN AOI22X2_HS
*|DIVIDER /
*|DELIMITER :
*|DeviceFingerDelim "@"
*|BUSBIT []
*|GLOBAL_TEMPERATURE 25
*|OPERATING_TEMPERATURE 25

** *VIA_COVERAGE_CODES
** *index FF FS FP FU SF SS SP SU PF PS PP PU UF US UP UU X_by_Y
** * "FF" stands for Full landing and Full coverage
** *0 0 0 0 0 0 0 0 0 0 0 0 0 0 0 0 0
** *1 0 0 0 0 0 0 0 0 0 0 0 0 0 0 0 1 1x1
** *2 0 0 0 0 0 0 0 0 0 0 0 0 0 0 1 0 1x1
** *3 0 0 0 0 0 0 0 0 0 0 0 0 0 1 0 0 1x1
** *4 0 0 0 0 0 0 0 0 0 0 0 0 1 0 0 0 1x1
** *5 0 0 0 0 0 0 0 0 0 0 0 1 0 0 0 0 1x1
** *6 0 0 0 0 0 0 0 0 0 0 1 0 0 0 0 0 1x1
** *7 0 0 0 0 0 0 0 0 0 1 0 0 0 0 0 0 1x1
** *8 0 0 0 0 0 0 0 0 1 0 0 0 0 0 0 0 1x1
** *9 0 0 0 0 0 0 0 1 0 0 0 0 0 0 0 0 1x1
** *10 0 0 0 0 0 0 1 0 0 0 0 0 0 0 0 0 1x1
** *11 0 0 0 0 0 1 0 0 0 0 0 0 0 0 0 0 1x1
** *12 0 0 0 0 1 0 0 0 0 0 0 0 0 0 0 0 1x1
** *13 0 0 0 1 0 0 0 0 0 0 0 0 0 0 0 0 1x1
** *14 0 0 1 0 0 0 0 0 0 0 0 0 0 0 0 0 1x1
** *15 0 1 0 0 0 0 0 0 0 0 0 0 0 0 0 0 1x1
** *16 1 0 0 0 0 0 0 0 0 0 0 0 0 0 0 0 1x1

** *RESISTOR_TYPES
** *1 SHORTING_ELEMENT
** *2 PRES_NG
** *3 PRES_PG
** *4 PRES_NF
** *5 PRES_PF
** *6 TCN_NDIFF
** *7 TCN_PDIFF
** *8 TCN_NFIELD
** *9 TCN_PFIELD
** *10 QUALITY_EXTRACTED
** *11 GCNLAND
** *12 TCNLAND
** *13 DUMMY
** *14 RSD
** *15 BRIDGE

** *RESISTOR_CURRENT_DIRECTION
** *0 HORIZONTAL
** *1 VERTICAL
** *2 45 DEGREE

** QRC_TECH_DIR /vols/wfo_devel/projects/reference_SKY130/tech/sky130_release_0.0.4/quantus/extraction/typical 
** HIERARCHICAL_SPLIT_PINS_DELIMITER '%'
** caps2d version: 10
*
.SUBCKT  AOI22X2_HS A0 A1 B0 B1 Y
*
*Net Section
*
*|GROUND_NET VSS!
*
*LAYER_MAP
*0 none
*1 metal1
*2 li
*3 poly
*4 diff
*5 licon_diff
*6 mcon
*7 licon
*8 FOX

*|NET B1 1.99412e-15
*|P (B1 X 0 2.7750 2.1650) // $llx=2.7750 $lly=2.1650 $urx=2.7750 $ury=2.1650 $lvl=1
*|I (Mmp3:g Mmp3 g X 0 2.7150 3.0150) // $llx=2.7150 $lly=3.0150 $urx=2.7150 $ury=3.0150 $lvl=3
*|I (Mmp3@1:g Mmp3@1 g X 0 3.1450 3.0150) // $llx=3.1450 $lly=3.0150 $urx=3.1450 $ury=3.0150 $lvl=3
*|I (Mmn3:g Mmn3 g X 0 2.7150 0.7750) // $llx=2.7150 $lly=0.7750 $urx=2.7150 $ury=0.7750 $lvl=3
*|I (Mmn3@1:g Mmn3@1 g X 0 3.1450 0.7750) // $llx=3.1450 $lly=0.7750 $urx=3.1450 $ury=0.7750 $lvl=3
*|S (B1:15 3.1450 3.8950) // $llx=3.1450 $lly=3.8950 $urx=3.1450 $ury=3.8950 $lvl=3
*|S (B1:16 3.1450 1.9000) // $llx=3.1450 $lly=1.9000 $urx=3.1450 $ury=1.9000 $lvl=3
*|S (B1:17 2.9300 1.9000) // $llx=2.9300 $lly=1.9000 $urx=2.9300 $ury=1.9000 $lvl=3
*|S (B1:18 2.7150 1.9000) // $llx=2.7150 $lly=1.9000 $urx=2.7150 $ury=1.9000 $lvl=3
*|S (B1:19 2.7050 1.7350) // $llx=2.7050 $lly=1.7350 $urx=2.7050 $ury=1.7350 $lvl=3
*|S (B1:20 3.1550 1.7350) // $llx=3.1550 $lly=1.7350 $urx=3.1550 $ury=1.7350 $lvl=3
*|S (B1:21 3.1450 0.2450) // $llx=3.1450 $lly=0.2450 $urx=3.1450 $ury=0.2450 $lvl=3
*|S (B1:22 2.7050 2.0645) // $llx=2.7050 $lly=2.0645 $urx=2.7050 $ury=2.0645 $lvl=3
*|S (B1:23 2.7150 3.8950) // $llx=2.7150 $lly=3.8950 $urx=2.7150 $ury=3.8950 $lvl=3
*|S (B1:24 2.7150 0.2450) // $llx=2.7150 $lly=0.2450 $urx=2.7150 $ury=0.2450 $lvl=3
*|S (B1:25 3.2700 1.9000) // $llx=3.2700 $lly=1.9000 $urx=3.2700 $ury=1.9000 $lvl=2
*|S (B1:26 2.9300 1.9000) // $llx=2.9300 $lly=1.9000 $urx=2.9300 $ury=1.9000 $lvl=2
*|S (B1:27 2.7600 1.9000) // $llx=2.7600 $lly=1.9000 $urx=2.7600 $ury=1.9000 $lvl=2
*|S (B1:28 2.3350 1.9000) // $llx=2.3350 $lly=1.9000 $urx=2.3350 $ury=1.9000 $lvl=2
*|S (B1:29 2.7600 2.7600) // $llx=2.7600 $lly=2.7600 $urx=2.7600 $ury=2.7600 $lvl=1
*|S (B1:30 2.7600 1.9000) // $llx=2.7600 $lly=1.9000 $urx=2.7600 $ury=1.9000 $lvl=1
*|S (B1:31 2.7600 1.5200) // $llx=2.7600 $lly=1.5200 $urx=2.7600 $ury=1.5200 $lvl=1
CD1 Mmn3:g VSS! 4.01404e-18 $lvl=3
CD2 B1:15 VSS! 2.09844e-18 $lvl=3
CD3 B1:23 VSS! 1.44424e-18 $lvl=3
CD4 B1:21 VSS! 2.37537e-18 $lvl=3
CD5 B1:30 VSS! 1.05683e-17 $lvl=1
CD6 B1:29 VSS! 9.35751e-18 $lvl=1
CD7 B1:31 VSS! 1.35903e-17 $lvl=1
CD8 B1:25 VSS! 6.70625e-18 $lvl=2
CD9 B1:28 VSS! 1.06029e-17 $lvl=2
CD10 B1:27 VSS! 4.63632e-18 $lvl=2
CD11 B1:17 VSS! 3.15723e-17 $lvl=3
CD12 B1:31 net106 3.30513e-18 $lvl1=1 $lvl2=2
CD13 B1:17 net106 2.70675e-18 $lvl1=3 $lvl2=2
CD14 B1:28 net106 2.62856e-18 $lvl1=2 $lvl2=2
CD15 B1:31 net106:8 9.16014e-19 $lvl1=1 $lvl2=2
CD16 B1:17 net106:8 8.98231e-19 $lvl1=3 $lvl2=2
CD17 B1:27 net106 8.86449e-19 $lvl1=2 $lvl2=2
CD18 Mmn3:g net106 1.29839e-16 $lvl1=3 $lvl2=2
CD19 B1:21 net106:8 1.31839e-16 $lvl1=3 $lvl2=2
CD20 B1:28 net89:20 6.71907e-18 $lvl1=2 $lvl2=2
CD21 B1:25 net89:25 5.08104e-18 $lvl1=2 $lvl2=2
CD22 B1:29 net89:20 5.01845e-18 $lvl1=1 $lvl2=2
CD23 B1:29 net89:34 4.81745e-18 $lvl1=1 $lvl2=1
CD24 B1:29 net89:14 4.29757e-18 $lvl1=1 $lvl2=2
CD25 B1:17 net89:16 3.68083e-18 $lvl1=3 $lvl2=2
CD26 B1:29 net89:24 3.66963e-18 $lvl1=1 $lvl2=2
CD27 B1:29 net89:35 3.35383e-18 $lvl1=1 $lvl2=1
CD28 B1:17 net89:24 3.08187e-18 $lvl1=3 $lvl2=2
CD29 B1:17 net89:25 3.03613e-18 $lvl1=3 $lvl2=2
CD30 B1:17 net89:20 2.7486e-18 $lvl1=3 $lvl2=2
CD31 B1:28 net89:16 2.65539e-18 $lvl1=2 $lvl2=2
CD32 B1:28 net89:14 2.522e-18 $lvl1=2 $lvl2=2
CD33 B1:28 net89:15 2.5203e-18 $lvl1=2 $lvl2=2
CD34 B1:27 net89:20 2.05679e-18 $lvl1=2 $lvl2=2
CD35 B1:29 net89:25 1.59173e-18 $lvl1=1 $lvl2=2
CD36 B1:25 net89:24 1.55091e-18 $lvl1=2 $lvl2=2
CD37 B1:17 Mmp3:s 1.43216e-18 $lvl1=3 $lvl2=4
CD38 B1:29 net89:15 1.43179e-18 $lvl1=1 $lvl2=2
CD39 B1:17 Mmp3@1:s 1.09918e-18 $lvl1=3 $lvl2=4
CD40 B1:29 net89:33 1.07717e-18 $lvl1=1 $lvl2=1
CD41 B1:23 net89:20 9.90183e-19 $lvl1=3 $lvl2=2
CD42 B1:25 net89:20 9.72344e-19 $lvl1=2 $lvl2=2
CD43 B1:17 net89:14 8.58423e-19 $lvl1=3 $lvl2=2
CD44 B1:29 net89:36 8.52214e-19 $lvl1=1 $lvl2=1
CD45 B1:23 net89:14 8.50724e-19 $lvl1=3 $lvl2=2
CD46 B1:15 net89:16 8.33164e-19 $lvl1=3 $lvl2=2
CD47 B1:29 net89:17 7.94242e-19 $lvl1=1 $lvl2=2
CD48 B1:15 net89:25 7.70006e-19 $lvl1=3 $lvl2=2
CD49 B1:30 net89:16 7.4313e-19 $lvl1=1 $lvl2=2
CD50 B1:30 net89:15 7.04232e-19 $lvl1=1 $lvl2=2
CD51 B1:30 net89:14 6.87323e-19 $lvl1=1 $lvl2=2
CD52 B1:27 net89:16 6.81094e-19 $lvl1=2 $lvl2=2
CD53 B1:30 net89:20 6.0673e-19 $lvl1=1 $lvl2=2
CD54 B1:29 net89:31 4.86425e-19 $lvl1=1 $lvl2=1
CD55 B1:30 net89:34 4.68346e-19 $lvl1=1 $lvl2=1
CD56 B1:23 net89:24 4.58939e-19 $lvl1=3 $lvl2=2
CD57 B1:25 net89:16 4.5465e-19 $lvl1=2 $lvl2=2
CD58 B1:30 net89:35 4.07466e-19 $lvl1=1 $lvl2=1
CD59 B1:28 Mmp1@1:d 3.9239e-19 $lvl1=2 $lvl2=4
CD60 B1:29 net89:16 1.32706e-17 $lvl1=1 $lvl2=2
CD61 B1:23 net89:16 2.496e-16 $lvl1=3 $lvl2=2
CD62 B1:15 net89:24 2.49633e-16 $lvl1=3 $lvl2=2
CD63 Mmn3:g VSS!:8 8.75269e-18 $lvl1=3 $lvl2=2
CD64 B1:21 VSS!:8 8.69843e-18 $lvl1=3 $lvl2=2
CD65 B1:23 VDD!:6 8.61619e-18 $lvl1=3 $lvl2=2
CD66 B1:15 VDD!:6 8.59324e-18 $lvl1=3 $lvl2=2
CD67 B1:29 VDD! 7.22948e-18 $lvl1=1 $lvl2=1
CD68 B1:17 VDD! 5.08453e-18 $lvl1=3 $lvl2=1
CD69 B1:31 VDD! 4.12246e-18 $lvl1=1 $lvl2=1
CD70 B1:30 VDD! 3.24596e-18 $lvl1=1 $lvl2=1
CD71 B1:29 VDD!:14 2.90366e-18 $lvl1=1 $lvl2=1
CD72 B1:17 Y:6 5.70645e-18 $lvl1=3 $lvl2=2
CD73 B1:29 Y:10 5.66897e-18 $lvl1=1 $lvl2=2
CD74 B1:25 Y:10 5.61951e-18 $lvl1=2 $lvl2=2
CD75 B1:17 Y:10 5.38694e-18 $lvl1=3 $lvl2=2
CD76 B1:29 Y:7 3.10071e-18 $lvl1=1 $lvl2=2
CD77 B1:31 Y:11 3.09588e-18 $lvl1=1 $lvl2=2
CD78 B1:31 Y:30 3.06756e-18 $lvl1=1 $lvl2=1
CD79 B1:27 Y:10 2.93238e-18 $lvl1=2 $lvl2=2
CD80 B1:17 Y:11 2.92062e-18 $lvl1=3 $lvl2=2
CD81 B1:29 Y:24 2.75802e-18 $lvl1=1 $lvl2=1
CD82 B1:30 Y:28 2.47938e-18 $lvl1=1 $lvl2=1
CD83 B1:17 Mmp3:d 1.6131e-18 $lvl1=3 $lvl2=4
CD84 B1:25 Y:6 1.60632e-18 $lvl1=2 $lvl2=2
CD85 B1:25 Y:11 1.36301e-18 $lvl1=2 $lvl2=2
CD86 B1:29 Y:28 1.33585e-18 $lvl1=1 $lvl2=1
CD87 B1:29 Y 1.15625e-18 $lvl1=1 $lvl2=1
CD88 B1:31 Y:12 1.05939e-18 $lvl1=1 $lvl2=2
CD89 B1:31 Y:26 1.01537e-18 $lvl1=1 $lvl2=1
CD90 B1:29 Y:30 9.71589e-19 $lvl1=1 $lvl2=1
CD91 B1:30 Y:30 9.30389e-19 $lvl1=1 $lvl2=1
CD92 B1:25 Y:20 9.10996e-19 $lvl1=2 $lvl2=2
CD93 B1:30 Y:22 9.07252e-19 $lvl1=1 $lvl2=1
CD94 B1:28 Y:28 8.68209e-19 $lvl1=2 $lvl2=1
CD95 B1:27 Y:6 8.18797e-19 $lvl1=2 $lvl2=2
CD96 B1:25 Y:28 7.72788e-19 $lvl1=2 $lvl2=1
CD97 B1:28 Y:30 7.67509e-19 $lvl1=2 $lvl2=1
CD98 B1:29 Y:25 7.04526e-19 $lvl1=1 $lvl2=1
CD99 B1:15 Y:10 6.81395e-19 $lvl1=3 $lvl2=2
CD100 B1:30 Y 6.62198e-19 $lvl1=1 $lvl2=1
CD101 B1:28 Y:11 6.44834e-19 $lvl1=2 $lvl2=2
CD102 B1:29 Y:26 6.39442e-19 $lvl1=1 $lvl2=1
CD103 B1:28 Y:10 6.35062e-19 $lvl1=2 $lvl2=2
CD104 B1:27 Y:11 6.3111e-19 $lvl1=2 $lvl2=2
CD105 B1:21 Y:15 6.03877e-19 $lvl1=3 $lvl2=2
CD106 B1:23 Y:10 5.80594e-19 $lvl1=3 $lvl2=2
CD107 B1:17 Y:16 5.55811e-19 $lvl1=3 $lvl2=2
CD108 B1:27 Y:28 5.40066e-19 $lvl1=2 $lvl2=1
CD109 B1:17 Y:20 5.36899e-19 $lvl1=3 $lvl2=2
CD110 B1:17 Y:28 5.14087e-19 $lvl1=3 $lvl2=1
CD111 B1:25 Y 4.86231e-19 $lvl1=2 $lvl2=1
CD112 B1:31 Y 4.69063e-19 $lvl1=1 $lvl2=1
CD113 B1:30 Y:26 4.53757e-19 $lvl1=1 $lvl2=1
CD114 B1:29 Y:22 3.34498e-17 $lvl1=1 $lvl2=1
CD115 B1:29 Y:6 1.21574e-17 $lvl1=1 $lvl2=2
CD116 B1:15 Y:6 2.4603e-16 $lvl1=3 $lvl2=2
CD117 B1:23 Y:6 2.55845e-16 $lvl1=3 $lvl2=2
CD118 B1:21 Y:11 1.26889e-16 $lvl1=3 $lvl2=2
CD119 B1:31 Y:28 1.46462e-17 $lvl1=1 $lvl2=1
CD120 Mmn3:g Y:11 1.27286e-16 $lvl1=3 $lvl2=2
ReD64 B1:29 B1 0.286058 $metal1  $L=0.595 $W=0.260000 $SI_W=0.26 $TYPE=10 $DIR=1 $LLX=2.630000 $LLY=2.165000 $URX=2.890000 $URY=2.760000 $lvl=1
ReD65 B1 B1:30 0.127404 $metal1  $L=0.265 $W=0.260000 $SI_W=0.26 $TYPE=10 $DIR=1 $LLX=2.630000 $LLY=1.900000 $URX=2.890000 $URY=2.165000 $lvl=1
ReD66 B1:30 B1:31 0.182692 $metal1  $L=0.38 $W=0.260000 $SI_W=0.26 $TYPE=10 $DIR=1 $LLX=2.630000 $LLY=1.520000 $URX=2.890000 $URY=1.900000 $lvl=1
RfD67 B1:25 B1:26 25.600000 $li  $L=0.34 $W=0.170000 $SI_W=0.17 $TYPE=10 $DIR=0 $LLX=2.930000 $LLY=1.815000 $URX=3.270000 $URY=1.985000 $lvl=2
RfD68 B1:26 B1:27 12.800000 $li  $L=0.17 $W=0.170000 $SI_W=0.17 $TYPE=10 $DIR=0 $LLX=2.760000 $LLY=1.815000 $URX=2.930000 $URY=1.985000 $lvl=2
RfD69 B1:27 B1:28 32.000000 $li  $L=0.425 $W=0.170000 $SI_W=0.17 $TYPE=10 $DIR=0 $LLX=2.335000 $LLY=1.815000 $URX=2.760000 $URY=1.985000 $lvl=2
RgD70 B1:15 Mmp3@1:g 282.773346 $poly  $L=0.88 $W=0.150000 $SI_W=0.15 $TYPE=10 $DIR=1 $LLX=3.070000 $LLY=3.015000 $URX=3.220000 $URY=3.895000 $lvl=3
RgD71 Mmp3@1:g B1:16 352.765503 $poly  $L=1.11475 $W=0.150000 $SI_W=0.15 $TYPE=10 $DIR=1 $LLX=3.070000 $LLY=1.900000 $URX=3.220000 $URY=3.015000 $lvl=3
RgD72 B1:16 B1:17 31.439547 $poly  $L=0.21525 $W=0.330000 $SI_W=0.33 $TYPE=10 $DIR=0 $LLX=2.930000 $LLY=1.735000 $URX=3.145000 $URY=2.065000 $lvl=3
RgD73 B1:17 B1:18 31.366514 $poly  $L=0.21475 $W=0.330000 $SI_W=0.33 $TYPE=10 $DIR=0 $LLX=2.715000 $LLY=1.735000 $URX=2.930000 $URY=2.065000 $lvl=3
RgD74 B1:18 B1:19 46.784668 $poly  $L=0.16475 $W=0.170000 $SI_W=0.17 $TYPE=10 $DIR=1 $LLX=2.620000 $LLY=1.735000 $URX=2.790000 $URY=1.900000 $lvl=3
RgD75 B1:19 Mmn3:g 308.550873 $poly  $L=0.96 $W=0.150000 $SI_W=0.15 $TYPE=10 $DIR=1 $LLX=2.640000 $LLY=0.775000 $URX=2.790000 $URY=1.735000 $lvl=3
RgD76 B1:16 B1:20 46.784668 $poly  $L=0.16475 $W=0.170000 $SI_W=0.17 $TYPE=10 $DIR=1 $LLX=3.070000 $LLY=1.735000 $URX=3.240000 $URY=1.900000 $lvl=3
RgD77 B1:20 Mmn3@1:g 308.550873 $poly  $L=0.96 $W=0.150000 $SI_W=0.15 $TYPE=10 $DIR=1 $LLX=3.070000 $LLY=0.775000 $URX=3.220000 $URY=1.735000 $lvl=3
RgD78 Mmn3@1:g B1:21 170.306671 $poly  $L=0.53 $W=0.150000 $SI_W=0.15 $TYPE=10 $DIR=1 $LLX=3.070000 $LLY=0.245000 $URX=3.220000 $URY=0.775000 $lvl=3
RgD79 B1:18 B1:22 46.642902 $poly  $L=0.16425 $W=0.170000 $SI_W=0.17 $TYPE=10 $DIR=1 $LLX=2.620000 $LLY=1.900500 $URX=2.790000 $URY=2.064500 $lvl=3
RgD80 B1:22 Mmp3:g 305.337555 $poly  $L=0.95 $W=0.150000 $SI_W=0.15 $TYPE=10 $DIR=1 $LLX=2.640000 $LLY=2.064500 $URX=2.790000 $URY=3.014500 $lvl=3
RgD81 Mmp3:g B1:23 282.773346 $poly  $L=0.88 $W=0.150000 $SI_W=0.15 $TYPE=10 $DIR=1 $LLX=2.640000 $LLY=3.015000 $URX=2.790000 $URY=3.895000 $lvl=3
RgD82 Mmn3:g B1:24 170.306671 $poly  $L=0.53 $W=0.150000 $SI_W=0.15 $TYPE=10 $DIR=1 $LLX=2.640000 $LLY=0.245000 $URX=2.790000 $URY=0.775000 $lvl=3
RjD83 B1:27 B1:30 152.000000 $mcon  $L=0.17 $W=0.17 $A=0.0289 $VC=0 $SAVL=0 $SAVC=0 $SI_A=0.0289 $COVER_DIR=0 $LLX=0.000000 $LLY=0.000000 $URX=0.170000 $URY=0.170000 $lvl=6
RiD84 B1:17 B1:26 7.500000 $licon  $A=0.0578 $VC=0 $SAVL=0 $SAVC=0 $SI_A=0.0578 $COVER_DIR=0 $LLX=0.000000 $LLY=0.000000 $URX=-0.057800 $URY=-2.000000 $lvl=7
*
*|NET VDD! 3.19116e-15
*|P (VDD! X 0 2.4150 4.1450) // $llx=2.4150 $lly=4.1450 $urx=2.4150 $ury=4.1450 $lvl=1
*|I (Mmp3:b Mmp3 b X 0 2.7150 3.0150) // $llx=2.7150 $lly=3.0150 $urx=2.7150 $ury=3.0150 $lvl=8
*|I (Mmp3@1:b Mmp3@1 b X 0 3.1450 3.0150) // $llx=3.1450 $lly=3.0150 $urx=3.1450 $ury=3.0150 $lvl=8
*|I (Mmp2:b Mmp2 b X 0 3.5750 3.0150) // $llx=3.5750 $lly=3.0150 $urx=3.5750 $ury=3.0150 $lvl=8
*|I (Mmp2@1:b Mmp2@1 b X 0 4.0050 3.0150) // $llx=4.0050 $lly=3.0150 $urx=4.0050 $ury=3.0150 $lvl=8
*|I (Mmp1:s Mmp1 s X 0 1.4105 3.0150) // $llx=1.4105 $lly=3.0150 $urx=1.4105 $ury=3.0150 $lvl=4
*|I (Mmp1:b Mmp1 b X 0 1.3350 3.0150) // $llx=1.3350 $lly=3.0150 $urx=1.3350 $ury=3.0150 $lvl=8
*|I (Mmp1@1:s Mmp1@1 s X 0 1.6895 3.0150) // $llx=1.6895 $lly=3.0150 $urx=1.6895 $ury=3.0150 $lvl=4
*|I (Mmp1@1:b Mmp1@1 b X 0 1.7650 3.0150) // $llx=1.7650 $lly=3.0150 $urx=1.7650 $ury=3.0150 $lvl=8
*|I (Mmp0:s Mmp0 s X 0 0.5505 3.0150) // $llx=0.5505 $lly=3.0150 $urx=0.5505 $ury=3.0150 $lvl=4
*|I (Mmp0:b Mmp0 b X 0 0.4750 3.0150) // $llx=0.4750 $lly=3.0150 $urx=0.4750 $ury=3.0150 $lvl=8
*|I (Mmp0@1:s Mmp0@1 s X 0 0.8295 3.0150) // $llx=0.8295 $lly=3.0150 $urx=0.8295 $ury=3.0150 $lvl=4
*|I (Mmp0@1:b Mmp0@1 b X 0 0.9050 3.0150) // $llx=0.9050 $lly=3.0150 $urx=0.9050 $ury=3.0150 $lvl=8
*|S (VDD!:1 0.6900 2.2850) // $llx=0.6900 $lly=2.2850 $urx=0.6900 $ury=2.2850 $lvl=2
*|S (VDD!:3 0.6900 3.0150) // $llx=0.6900 $lly=3.0150 $urx=0.6900 $ury=3.0150 $lvl=2
*|S (VDD!:4 0.6900 4.1400) // $llx=0.6900 $lly=4.1400 $urx=0.6900 $ury=4.1400 $lvl=2
*|S (VDD!:5 0.0000 4.1400) // $llx=0.0000 $lly=4.1400 $urx=0.0000 $ury=4.1400 $lvl=2
*|S (VDD!:6 1.5500 4.1400) // $llx=1.5500 $lly=4.1400 $urx=1.5500 $ury=4.1400 $lvl=2
*|S (VDD!:8 1.5500 3.0150) // $llx=1.5500 $lly=3.0150 $urx=1.5500 $ury=3.0150 $lvl=2
*|S (VDD!:9 1.5500 2.2850) // $llx=1.5500 $lly=2.2850 $urx=1.5500 $ury=2.2850 $lvl=2
*|S (VDD!:10 2.3000 4.1400) // $llx=2.3000 $lly=4.1400 $urx=2.3000 $ury=4.1400 $lvl=2
*|S (VDD!:11 2.3000 4.1400) // $llx=2.3000 $lly=4.1400 $urx=2.3000 $ury=4.1400 $lvl=4
*|S (VDD!:13 4.6000 4.1400) // $llx=4.6000 $lly=4.1400 $urx=4.6000 $ury=4.1400 $lvl=1
*|S (VDD!:14 2.3000 4.1400) // $llx=2.3000 $lly=4.1400 $urx=2.3000 $ury=4.1400 $lvl=1
*|S (VDD!:15 0.0000 4.1400) // $llx=0.0000 $lly=4.1400 $urx=0.0000 $ury=4.1400 $lvl=1
CF1 Mmp0:s VSS! 4.43956e-19 $lvl=4
CF2 Mmp1:s VSS! 2.12866e-18 $lvl=4
CF3 VDD!:14 VSS! 1.95562e-17 $lvl=1
CF4 VDD!:13 VSS! 8.21722e-18 $lvl=1
CF5 VDD!:15 VSS! 6.51579e-18 $lvl=1
CF6 VDD!:3 VSS! 5.35872e-18 $lvl=2
CF7 VDD!:9 VSS! 1.34537e-17 $lvl=2
CF8 VDD!:6 VSS! 6.19776e-18 $lvl=2
CF9 VDD!:4 VSS! 3.57716e-18 $lvl=2
CF10 VDD!:5 VSS! 3.14725e-18 $lvl=2
CF11 VDD!:11 VSS! 3.86595e-18 $lvl=4
CF12 VDD!:10 VSS! 3.65569e-18 $lvl=2
CF13 VDD! VSS! 1.83089e-17 $lvl=1
CF14 VDD! net106:15 5.15374e-18 $lvl1=1 $lvl2=1
CF15 VDD! net106:17 3.87397e-18 $lvl1=1 $lvl2=1
CF16 VDD! net106:9 1.85803e-17 $lvl1=1 $lvl2=2
CF17 VDD! net106:13 8.99083e-18 $lvl1=1 $lvl2=1
CF18 VDD! net98:15 7.03814e-18 $lvl1=1 $lvl2=1
CF19 VDD! net98:13 3.64658e-18 $lvl1=1 $lvl2=1
CF20 VDD! net98 2.48641e-17 $lvl1=1 $lvl2=2
CF21 VDD! net98:17 1.46108e-17 $lvl1=1 $lvl2=1
CF22 VDD! net89:24 9.90769e-18 $lvl1=1 $lvl2=2
CF23 VDD! net89:36 8.52528e-18 $lvl1=1 $lvl2=1
CF24 VDD!:9 net89:15 8.07909e-18 $lvl1=2 $lvl2=2
CF25 VDD!:9 net89:10 7.92556e-18 $lvl1=2 $lvl2=2
CF26 VDD!:3 net89:10 7.69378e-18 $lvl1=2 $lvl2=2
CF27 VDD!:3 net89:5 7.41868e-18 $lvl1=2 $lvl2=2
CF28 VDD! net89:35 6.46238e-18 $lvl1=1 $lvl2=1
CF29 VDD! net89:33 6.37961e-18 $lvl1=1 $lvl2=1
CF30 VDD!:15 net89 5.69342e-18 $lvl1=1 $lvl2=2
CF31 VDD! net89:34 5.08814e-18 $lvl1=1 $lvl2=1
CF32 VDD!:13 net89:26 4.72722e-18 $lvl1=1 $lvl2=2
CF33 VDD!:14 net89:14 4.51241e-18 $lvl1=1 $lvl2=2
CF34 VDD!:14 net89:6 4.21863e-18 $lvl1=1 $lvl2=2
CF35 VDD!:6 Mmp2@1:s 4.02917e-18 $lvl1=2 $lvl2=4
CF36 VDD!:14 net89:16 3.97085e-18 $lvl1=1 $lvl2=2
CF37 VDD!:14 net89:22 3.90421e-18 $lvl1=1 $lvl2=2
CF38 VDD!:14 net89:17 3.86135e-18 $lvl1=1 $lvl2=2
CF39 VDD!:14 net89:24 3.81129e-18 $lvl1=1 $lvl2=2
CF40 VDD!:14 net89:26 3.70435e-18 $lvl1=1 $lvl2=2
CF41 VDD! net89:5 3.51419e-18 $lvl1=1 $lvl2=2
CF42 VDD!:6 Mmp1@1:d 3.39398e-18 $lvl1=2 $lvl2=4
CF43 VDD! net89:30 3.37231e-18 $lvl1=1 $lvl2=2
CF44 VDD!:6 Mmp3:s 3.25333e-18 $lvl1=2 $lvl2=4
CF45 VDD!:6 net89:33 2.92387e-18 $lvl1=2 $lvl2=1
CF46 VDD!:6 net89:31 2.92044e-18 $lvl1=2 $lvl2=1
CF47 VDD!:11 net89:26 2.83955e-18 $lvl1=4 $lvl2=2
CF48 VDD!:14 net89:27 2.83423e-18 $lvl1=1 $lvl2=2
CF49 VDD!:6 net89:35 2.80818e-18 $lvl1=2 $lvl2=1
CF50 VDD!:11 net89 2.77713e-18 $lvl1=4 $lvl2=2
CF51 VDD!:10 net89:14 2.75544e-18 $lvl1=2 $lvl2=2
CF52 VDD!:14 net89 2.59847e-18 $lvl1=1 $lvl2=2
CF53 VDD!:3 Mmp1:d 2.42183e-18 $lvl1=2 $lvl2=4
CF54 VDD!:6 net89:36 2.27175e-18 $lvl1=2 $lvl2=1
CF55 VDD!:10 net89:36 2.18373e-18 $lvl1=2 $lvl2=1
CF56 VDD!:13 net89:27 2.17285e-18 $lvl1=1 $lvl2=2
CF57 VDD!:6 Mmp3@1:s 2.16852e-18 $lvl1=2 $lvl2=4
CF58 VDD!:4 net89:36 2.14049e-18 $lvl1=2 $lvl2=1
CF59 VDD!:5 net89:38 2.10953e-18 $lvl1=2 $lvl2=1
CF60 VDD!:4 net89:38 2.08098e-18 $lvl1=2 $lvl2=1
CF61 VDD!:10 net89:6 1.97976e-18 $lvl1=2 $lvl2=2
CF62 VDD!:10 net89:33 1.80241e-18 $lvl1=2 $lvl2=1
CF63 VDD!:10 net89:24 1.79718e-18 $lvl1=2 $lvl2=2
CF64 VDD!:6 net89:34 1.73147e-18 $lvl1=2 $lvl2=1
CF65 VDD! net89:27 1.71972e-18 $lvl1=1 $lvl2=2
CF66 VDD!:6 net89:27 1.60069e-18 $lvl1=2 $lvl2=2
CF67 VDD!:6 net89:17 1.59692e-18 $lvl1=2 $lvl2=2
CF68 VDD!:10 net89:16 1.57914e-18 $lvl1=2 $lvl2=2
CF69 VDD! net89:6 1.50027e-18 $lvl1=1 $lvl2=2
CF70 VDD!:3 Mmp0:d 1.48851e-18 $lvl1=2 $lvl2=4
CF71 VDD!:10 net89:38 1.47569e-18 $lvl1=2 $lvl2=1
CF72 VDD!:3 net89:7 1.45262e-18 $lvl1=2 $lvl2=2
CF73 VDD!:3 net89:2 1.43624e-18 $lvl1=2 $lvl2=2
CF74 VDD!:10 net89:26 1.42925e-18 $lvl1=2 $lvl2=2
CF75 VDD!:6 net89:22 1.38877e-18 $lvl1=2 $lvl2=2
CF76 VDD!:4 Mmp1:d 1.37683e-18 $lvl1=2 $lvl2=4
CF77 VDD!:11 net89:16 1.37335e-18 $lvl1=4 $lvl2=2
CF78 VDD!:9 net89:12 1.35195e-18 $lvl1=2 $lvl2=2
CF79 VDD!:9 net89:16 1.28178e-18 $lvl1=2 $lvl2=2
CF80 VDD!:15 net89:36 1.20909e-18 $lvl1=1 $lvl2=1
CF81 VDD!:10 net89:34 1.17054e-18 $lvl1=2 $lvl2=1
CF82 VDD!:10 net89:35 1.1347e-18 $lvl1=2 $lvl2=1
CF83 VDD!:11 net89:14 1.12499e-18 $lvl1=4 $lvl2=2
CF84 VDD!:9 net89:7 1.05041e-18 $lvl1=2 $lvl2=2
CF85 VDD!:10 net89:22 1.02244e-18 $lvl1=2 $lvl2=2
CF86 VDD!:10 net89:31 9.52234e-19 $lvl1=2 $lvl2=1
CF87 VDD!:10 net89 9.47331e-19 $lvl1=2 $lvl2=2
CF88 VDD!:13 net89:33 8.41457e-19 $lvl1=1 $lvl2=1
CF89 VDD!:10 net89:17 8.35411e-19 $lvl1=2 $lvl2=2
CF90 VDD!:10 net89:27 7.44176e-19 $lvl1=2 $lvl2=2
CF91 VDD!:9 Mmp1@1:d 6.89017e-19 $lvl1=2 $lvl2=4
CF92 VDD! net89:15 6.34355e-19 $lvl1=1 $lvl2=2
CF93 Mmp0:s net89 6.11507e-19 $lvl1=4 $lvl2=2
CF94 VDD!:14 net89:12 5.96729e-19 $lvl1=1 $lvl2=2
CF95 VDD!:3 net89:6 1.00526e-16 $lvl1=2 $lvl2=2
CF96 VDD!:3 net89:36 1.09174e-17 $lvl1=2 $lvl2=1
CF97 VDD!:3 net89 9.76812e-17 $lvl1=2 $lvl2=2
CF98 VDD!:9 net89:14 9.8417e-17 $lvl1=2 $lvl2=2
CF99 VDD! net89:26 6.25383e-17 $lvl1=1 $lvl2=2
CF100 VDD!:4 net89:6 1.24064e-17 $lvl1=2 $lvl2=2
CF101 VDD!:6 net89:24 2.19151e-17 $lvl1=2 $lvl2=2
CF102 VDD!:13 net89:31 1.17573e-17 $lvl1=1 $lvl2=1
CF103 VDD!:4 net89 1.24075e-17 $lvl1=2 $lvl2=2
CF104 VDD!:9 net89:35 1.03996e-17 $lvl1=2 $lvl2=1
CF105 VDD!:5 net89 1.2135e-17 $lvl1=2 $lvl2=2
CF106 VDD! net89:16 1.12601e-17 $lvl1=1 $lvl2=2
CF107 VDD!:6 net89:6 1.07373e-17 $lvl1=2 $lvl2=2
CF108 VDD! net89:14 1.14606e-17 $lvl1=1 $lvl2=2
CF109 VDD!:3 net89:38 1.07192e-17 $lvl1=2 $lvl2=1
CF110 VDD!:15 net89:38 1.68982e-17 $lvl1=1 $lvl2=1
CF111 VDD!:9 net89:6 9.57427e-17 $lvl1=2 $lvl2=2
CF112 VDD!:14 net89:36 4.41188e-17 $lvl1=1 $lvl2=1
CF113 VDD!:6 net89:16 2.4972e-17 $lvl1=2 $lvl2=2
CF114 VDD!:14 net89:35 3.69123e-17 $lvl1=1 $lvl2=1
CF115 VDD! net89 5.42282e-17 $lvl1=1 $lvl2=2
CF116 VDD!:9 net89:36 1.0589e-17 $lvl1=2 $lvl2=1
CF117 VDD!:14 net89:34 3.69284e-17 $lvl1=1 $lvl2=1
CF118 VDD!:14 net89:33 4.20904e-17 $lvl1=1 $lvl2=1
CF119 VDD! net89:31 1.2707e-17 $lvl1=1 $lvl2=1
CF120 VDD! net89:38 1.88506e-17 $lvl1=1 $lvl2=1
CF121 VDD!:6 net89:26 2.74518e-17 $lvl1=2 $lvl2=2
CF122 VDD!:14 net89:31 2.56053e-17 $lvl1=1 $lvl2=1
CF123 VDD!:6 net89:14 2.64721e-17 $lvl1=2 $lvl2=2
CF124 VDD!:14 net89:38 2.35083e-17 $lvl1=1 $lvl2=1
CF125 VDD! VSS!:8 1.01071e-16 $lvl1=1 $lvl2=2
CF126 VDD! VSS!:9 2.00169e-17 $lvl1=1 $lvl2=2
CF127 VDD! VSS!:5 1.2629e-17 $lvl1=1 $lvl2=2
CF128 VDD! VSS!:15 1.29929e-16 $lvl1=1 $lvl2=1
CF129 VDD! VSS!:14 3.67317e-17 $lvl1=1 $lvl2=1
CF130 VDD! VSS!:16 3.01157e-17 $lvl1=1 $lvl2=1
CF131 VDD! VSS!:10 1.45152e-17 $lvl1=1 $lvl2=2
ReF119 VDD!:13 VDD! 0.682813 $metal1  $L=2.185 $W=0.400000 $SI_W=0.4 $TYPE=10 $DIR=0 $LLX=2.415000 $LLY=3.940000 $URX=4.600000 $URY=4.340000 $lvl=1
ReF120 VDD! VDD!:14 0.035937 $metal1  $L=0.115 $W=0.400000 $SI_W=0.4 $TYPE=10 $DIR=0 $LLX=2.300000 $LLY=3.940000 $URX=2.415000 $URY=4.340000 $lvl=1
ReF121 VDD!:14 VDD!:15 0.718750 $metal1  $L=2.3 $W=0.400000 $SI_W=0.4 $TYPE=10 $DIR=0 $LLX=0.000000 $LLY=3.940000 $URX=2.300000 $URY=4.340000 $lvl=1
RfF122 VDD!:1 VDD!:3 54.964703 $li  $L=0.73 $W=0.170000 $SI_W=0.17 $TYPE=10 $DIR=1 $LLX=0.605000 $LLY=2.285000 $URX=0.775000 $URY=3.015000 $lvl=2
RfF123 VDD!:3 VDD!:4 81.706917 $li  $L=1.12525 $W=0.170000 $SI_W=0.17 $TYPE=10 $DIR=1 $LLX=0.605000 $LLY=3.015000 $URX=0.775000 $URY=4.140000 $lvl=2
RfF124 VDD!:4 VDD!:5 35.340801 $li  $L=0.69025 $W=0.250000 $SI_W=0.25 $TYPE=10 $DIR=0 $LLX=0.000000 $LLY=4.015000 $URX=0.690000 $URY=4.265000 $lvl=2
RfF125 VDD!:4 VDD!:6 44.031998 $li  $L=0.86 $W=0.250000 $SI_W=0.25 $TYPE=10 $DIR=0 $LLX=0.690000 $LLY=4.015000 $URX=1.550000 $URY=4.265000 $lvl=2
RfF126 VDD!:6 VDD!:8 81.706917 $li  $L=1.12525 $W=0.170000 $SI_W=0.17 $TYPE=10 $DIR=1 $LLX=1.465000 $LLY=3.015000 $URX=1.635000 $URY=4.140000 $lvl=2
RfF127 VDD!:8 VDD!:9 54.964703 $li  $L=0.73 $W=0.170000 $SI_W=0.17 $TYPE=10 $DIR=1 $LLX=1.465000 $LLY=2.285000 $URX=1.635000 $URY=3.015000 $lvl=2
RfF128 VDD!:6 VDD!:10 38.387199 $li  $L=0.74975 $W=0.250000 $SI_W=0.25 $TYPE=10 $DIR=0 $LLX=1.550000 $LLY=4.015000 $URX=2.300000 $URY=4.265000 $lvl=2
Rh_1_F129 VDD!:11 VDD!:10 1.666667 $licon_diff  $A=0.2601 $VC=0 $SAVL=0 $SAVC=0 $SI_A=0.2601 $COVER_DIR=0 $LLX=0.000000 $LLY=0.000000 $URX=-0.260100 $URY=-9.000000 $lvl=5
Rh_2_F130 Mmp0:s VDD!:3 3.750000 $licon_diff  $A=0.1156 $VC=0 $SAVL=0 $SAVC=0 $SI_A=0.1156 $COVER_DIR=0 $LLX=0.000000 $LLY=0.000000 $URX=-0.115600 $URY=-4.000000 $lvl=5
Rh_2_F131 Mmp1:s VDD!:8 3.750000 $licon_diff  $A=0.1156 $VC=0 $SAVL=0 $SAVC=0 $SI_A=0.1156 $COVER_DIR=0 $LLX=0.000000 $LLY=0.000000 $URX=-0.115600 $URY=-4.000000 $lvl=5
RjF132 VDD!:10 VDD!:14 16.888889 $mcon  $A=0.2601 $VC=0 $SAVL=0 $SAVC=0 $SI_A=0.2601 $COVER_DIR=0 $LLX=0.000000 $LLY=0.000000 $URX=-0.260100 $URY=-9.000000 $lvl=6
RmwF133 Mmp3:b VDD! 0.001000 $FOX $W=1000000 $SI_W=1000000 $TYPE=1 $DIR=0
RmwF134 Mmp3@1:b VDD! 0.001000 $FOX $W=1000000 $SI_W=1000000 $TYPE=1 $DIR=0
RmwF135 Mmp2:b VDD! 0.001000 $FOX $W=1000000 $SI_W=1000000 $TYPE=1 $DIR=0
RmwF136 Mmp2@1:b VDD! 0.001000 $FOX $W=1000000 $SI_W=1000000 $TYPE=1 $DIR=0
RmwF137 Mmp1:b VDD! 0.001000 $FOX $W=1000000 $SI_W=1000000 $TYPE=1 $DIR=0
RmwF138 Mmp1@1:s Mmp1:s 0.001000 $diff $W=1000000 $SI_W=1000000 $TYPE=1 $DIR=0
RmwF139 Mmp1@1:b VDD! 0.001000 $FOX $W=1000000 $SI_W=1000000 $TYPE=1 $DIR=0
RmwF140 Mmp0:b VDD! 0.001000 $FOX $W=1000000 $SI_W=1000000 $TYPE=1 $DIR=0
RmwF141 Mmp0@1:s Mmp0:s 0.001000 $diff $W=1000000 $SI_W=1000000 $TYPE=1 $DIR=0
RmwF142 Mmp0@1:b VDD! 0.001000 $FOX $W=1000000 $SI_W=1000000 $TYPE=1 $DIR=0
*
*|NET A0 1.96699e-15
*|P (A0 X 0 0.4750 2.1650) // $llx=0.4750 $lly=2.1650 $urx=0.4750 $ury=2.1650 $lvl=1
*|I (Mmp0:g Mmp0 g X 0 0.4750 3.0150) // $llx=0.4750 $lly=3.0150 $urx=0.4750 $ury=3.0150 $lvl=3
*|I (Mmp0@1:g Mmp0@1 g X 0 0.9050 3.0150) // $llx=0.9050 $lly=3.0150 $urx=0.9050 $ury=3.0150 $lvl=3
*|I (Mmn0:g Mmn0 g X 0 0.4750 0.7750) // $llx=0.4750 $lly=0.7750 $urx=0.4750 $ury=0.7750 $lvl=3
*|I (Mmn0@1:g Mmn0@1 g X 0 0.9050 0.7750) // $llx=0.9050 $lly=0.7750 $urx=0.9050 $ury=0.7750 $lvl=3
*|S (A0:15 0.9050 3.8950) // $llx=0.9050 $lly=3.8950 $urx=0.9050 $ury=3.8950 $lvl=3
*|S (A0:16 0.9050 1.9000) // $llx=0.9050 $lly=1.9000 $urx=0.9050 $ury=1.9000 $lvl=3
*|S (A0:17 0.6775 1.9000) // $llx=0.6775 $lly=1.9000 $urx=0.6775 $ury=1.9000 $lvl=3
*|S (A0:18 0.4750 1.9000) // $llx=0.4750 $lly=1.9000 $urx=0.4750 $ury=1.9000 $lvl=3
*|S (A0:19 0.4525 1.7350) // $llx=0.4525 $lly=1.7350 $urx=0.4525 $ury=1.7350 $lvl=3
*|S (A0:20 0.9150 1.7350) // $llx=0.9150 $lly=1.7350 $urx=0.9150 $ury=1.7350 $lvl=3
*|S (A0:21 0.9050 0.2450) // $llx=0.9050 $lly=0.2450 $urx=0.9050 $ury=0.2450 $lvl=3
*|S (A0:22 0.4525 2.0645) // $llx=0.4525 $lly=2.0645 $urx=0.4525 $ury=2.0645 $lvl=3
*|S (A0:23 0.4750 3.8950) // $llx=0.4750 $lly=3.8950 $urx=0.4750 $ury=3.8950 $lvl=3
*|S (A0:24 0.4750 0.2450) // $llx=0.4750 $lly=0.2450 $urx=0.4750 $ury=0.2450 $lvl=3
*|S (A0:25 1.0300 1.9000) // $llx=1.0300 $lly=1.9000 $urx=1.0300 $ury=1.9000 $lvl=2
*|S (A0:26 0.6775 1.9000) // $llx=0.6775 $lly=1.9000 $urx=0.6775 $ury=1.9000 $lvl=2
*|S (A0:27 0.4600 1.9000) // $llx=0.4600 $lly=1.9000 $urx=0.4600 $ury=1.9000 $lvl=2
*|S (A0:28 0.0950 1.9000) // $llx=0.0950 $lly=1.9000 $urx=0.0950 $ury=1.9000 $lvl=2
*|S (A0:29 0.4600 2.7600) // $llx=0.4600 $lly=2.7600 $urx=0.4600 $ury=2.7600 $lvl=1
*|S (A0:30 0.4600 1.9000) // $llx=0.4600 $lly=1.9000 $urx=0.4600 $ury=1.9000 $lvl=1
*|S (A0:31 0.4600 1.5200) // $llx=0.4600 $lly=1.5200 $urx=0.4600 $ury=1.5200 $lvl=1
CA1 Mmn0@1:g VSS! 9.91745e-19 $lvl=3
CA2 Mmn0:g VSS! 3.28594e-18 $lvl=3
CA3 A0:15 VSS! 1.86472e-18 $lvl=3
CA4 A0:23 VSS! 1.85058e-18 $lvl=3
CA5 A0:30 VSS! 8.35594e-18 $lvl=1
CA6 A0:29 VSS! 9.81902e-18 $lvl=1
CA7 A0:31 VSS! 9.93519e-18 $lvl=1
CA8 A0:26 VSS! 6.40048e-18 $lvl=2
CA9 A0:28 VSS! 8.64525e-18 $lvl=2
CA10 A0:27 VSS! 3.87212e-18 $lvl=2
CA11 A0:17 VSS! 2.66323e-17 $lvl=3
CA12 A0:31 net98 6.27033e-18 $lvl1=1 $lvl2=2
CA13 A0:31 net98:17 4.53102e-18 $lvl1=1 $lvl2=1
CA14 A0:17 net98 3.3426e-18 $lvl1=3 $lvl2=2
CA15 A0:28 net98 3.14878e-18 $lvl1=2 $lvl2=2
CA16 A0:31 net98:15 2.48286e-18 $lvl1=1 $lvl2=1
CA17 A0:26 net98 1.32477e-18 $lvl1=2 $lvl2=2
CA18 A0:27 net98 1.25368e-18 $lvl1=2 $lvl2=2
CA19 A0:30 net98 1.21218e-18 $lvl1=1 $lvl2=2
CA20 A0:31 net98:5 1.20587e-18 $lvl1=1 $lvl2=2
CA21 A0:29 net98:17 1.05118e-18 $lvl1=1 $lvl2=1
CA22 A0:17 net98:5 1.00086e-18 $lvl1=3 $lvl2=2
CA23 Mmn0@1:g net98 9.80866e-19 $lvl1=3 $lvl2=2
CA24 A0:30 net98:17 9.19678e-19 $lvl1=1 $lvl2=1
CA25 A0:29 net98 8.93758e-19 $lvl1=1 $lvl2=2
CA26 A0:17 Mmn0:d 7.72812e-19 $lvl1=3 $lvl2=4
CA27 A0:30 net98:15 6.20441e-19 $lvl1=1 $lvl2=1
CA28 Mmn0:g net98 1.29191e-16 $lvl1=3 $lvl2=2
CA29 Mmn0@1:g net98:5 1.27015e-16 $lvl1=3 $lvl2=2
CA30 A0:29 net89:36 6.42534e-18 $lvl1=1 $lvl2=1
CA31 A0:29 net89:5 6.2288e-18 $lvl1=1 $lvl2=2
CA32 A0:28 net89:5 6.02671e-18 $lvl1=2 $lvl2=2
CA33 A0:26 net89:10 5.25429e-18 $lvl1=2 $lvl2=2
CA34 A0:17 net89 4.49582e-18 $lvl1=3 $lvl2=2
CA35 A0:29 net89:6 4.13899e-18 $lvl1=1 $lvl2=2
CA36 A0:28 net89 4.09138e-18 $lvl1=2 $lvl2=2
CA37 A0:17 net89:5 3.29905e-18 $lvl1=3 $lvl2=2
CA38 A0:17 net89:6 2.88294e-18 $lvl1=3 $lvl2=2
CA39 A0:17 net89:10 2.81238e-18 $lvl1=3 $lvl2=2
CA40 A0:27 net89:5 2.26773e-18 $lvl1=2 $lvl2=2
CA41 A0:17 Mmp0:d 1.57722e-18 $lvl1=3 $lvl2=4
CA42 A0:30 net89 1.50939e-18 $lvl1=1 $lvl2=2
CA43 A0:26 net89:6 1.5022e-18 $lvl1=2 $lvl2=2
CA44 A0:26 net89:5 1.47073e-18 $lvl1=2 $lvl2=2
CA45 A0:29 net89:10 1.21683e-18 $lvl1=1 $lvl2=2
CA46 A0:17 Mmp1:d 1.15456e-18 $lvl1=3 $lvl2=4
CA47 A0:31 net89 1.02996e-18 $lvl1=1 $lvl2=2
CA48 A0:29 net89:35 9.35473e-19 $lvl1=1 $lvl2=1
CA49 A0:27 net89 8.65906e-19 $lvl1=2 $lvl2=2
CA50 A0:30 net89:38 7.71168e-19 $lvl1=1 $lvl2=1
CA51 A0:23 net89:6 7.52876e-19 $lvl1=3 $lvl2=2
CA52 A0:30 net89:5 7.46985e-19 $lvl1=1 $lvl2=2
CA53 A0:15 net89:10 7.45569e-19 $lvl1=3 $lvl2=2
CA54 A0:26 net89 7.33762e-19 $lvl1=2 $lvl2=2
CA55 A0:23 net89:5 6.42708e-19 $lvl1=3 $lvl2=2
CA56 A0:15 net89 6.00181e-19 $lvl1=3 $lvl2=2
CA57 A0:29 net89:38 1.18158e-17 $lvl1=1 $lvl2=1
CA58 A0:29 net89 2.07752e-17 $lvl1=1 $lvl2=2
CA59 A0:15 net89:6 2.47084e-16 $lvl1=3 $lvl2=2
CA60 A0:23 net89 2.52081e-16 $lvl1=3 $lvl2=2
CA61 Mmn0@1:g VSS!:8 8.48529e-18 $lvl1=3 $lvl2=2
CA62 Mmn0:g VSS!:8 8.03615e-18 $lvl1=3 $lvl2=2
CA63 A0:31 VSS!:12 4.47666e-18 $lvl1=1 $lvl2=2
CA64 A0:17 VSS!:12 3.23736e-18 $lvl1=3 $lvl2=2
CA65 A0:31 VSS!:15 2.23054e-18 $lvl1=1 $lvl2=1
CA66 A0:26 VSS!:12 1.44138e-18 $lvl1=2 $lvl2=2
CA67 A0:31 VSS!:16 1.325e-18 $lvl1=1 $lvl2=1
CA68 A0:29 VSS!:15 1.16813e-18 $lvl1=1 $lvl2=1
CA69 Mmn0:g VSS!:12 1.24116e-16 $lvl1=3 $lvl2=2
CA70 Mmn0@1:g VSS!:12 1.27566e-16 $lvl1=3 $lvl2=2
CA71 A0:30 VDD! 8.76421e-18 $lvl1=1 $lvl2=1
CA72 A0:17 VDD! 8.64002e-18 $lvl1=3 $lvl2=1
CA73 A0:26 VDD!:3 8.31013e-18 $lvl1=2 $lvl2=2
CA74 A0:15 VDD!:4 8.21192e-18 $lvl1=3 $lvl2=2
CA75 A0:23 VDD!:4 7.28702e-18 $lvl1=3 $lvl2=2
CA76 A0:27 VDD!:3 2.76723e-18 $lvl1=2 $lvl2=2
CA77 A0:29 VDD!:14 2.7215e-18 $lvl1=1 $lvl2=1
CA78 A0:17 Mmp0:s 1.8701e-18 $lvl1=3 $lvl2=4
CA79 A0:29 VDD!:15 1.73792e-18 $lvl1=1 $lvl2=1
CA80 A0:17 VDD!:9 1.44122e-18 $lvl1=3 $lvl2=2
CA81 A0:26 VDD!:9 1.39388e-18 $lvl1=2 $lvl2=2
CA82 A0:15 VDD!:6 1.3812e-18 $lvl1=3 $lvl2=2
CA83 A0:30 VDD!:3 1.26373e-18 $lvl1=1 $lvl2=2
CA84 A0:27 VDD! 1.08904e-18 $lvl1=2 $lvl2=1
CA85 A0:29 VDD!:3 2.05889e-17 $lvl1=1 $lvl2=2
CA86 A0:17 VDD!:3 1.00407e-17 $lvl1=3 $lvl2=2
CA87 A0:23 VDD!:3 2.55452e-16 $lvl1=3 $lvl2=2
CA88 A0:15 VDD!:3 2.53535e-16 $lvl1=3 $lvl2=2
CA89 A0:29 VDD! 1.93074e-17 $lvl1=1 $lvl2=1
CA90 A0:31 VDD! 1.16336e-17 $lvl1=1 $lvl2=1
CA91 A0:28 VDD! 1.02159e-17 $lvl1=2 $lvl2=1
CA92 A0:26 A1:28 8.98685e-18 $lvl1=2 $lvl2=2
CA93 A0:31 A1:31 7.64358e-18 $lvl1=1 $lvl2=1
CA94 A0:17 A1:28 6.1736e-18 $lvl1=3 $lvl2=2
CA95 A0:26 A1:29 5.55733e-18 $lvl1=2 $lvl2=1
CA96 A0:17 A1:17 5.09976e-18 $lvl1=3 $lvl2=3
CA97 A0:30 A1:29 5.08069e-18 $lvl1=1 $lvl2=1