*
*|DSPF 1.5
*
*|DATE "Wed Jan  8 23:29:18 2025"
*|VENDOR "Cadence Design Systems"
*|PROGRAM "Cadence Quantus Extraction"
*|VERSION "22.1.0-p089 Linux 64 bit - (Thu Jan 19 11:47:08 PST 2023)"
*|DESIGN AOI221X1_HS
*|DIVIDER /
*|DELIMITER :
*|DeviceFingerDelim "@"
*|BUSBIT []
*|GLOBAL_TEMPERATURE 25
*|OPERATING_TEMPERATURE 25

** *VIA_COVERAGE_CODES
** *index FF FS FP FU SF SS SP SU PF PS PP PU UF US UP UU X_by_Y
** * "FF" stands for Full landing and Full coverage
** *0 0 0 0 0 0 0 0 0 0 0 0 0 0 0 0 0
** *1 0 0 0 0 0 0 0 0 0 0 0 0 0 0 0 1 1x1
** *2 0 0 0 0 0 0 0 0 0 0 0 0 0 0 1 0 1x1
** *3 0 0 0 0 0 0 0 0 0 0 0 0 0 1 0 0 1x1
** *4 0 0 0 0 0 0 0 0 0 0 0 0 1 0 0 0 1x1
** *5 0 0 0 0 0 0 0 0 0 0 0 1 0 0 0 0 1x1
** *6 0 0 0 0 0 0 0 0 0 0 1 0 0 0 0 0 1x1
** *7 0 0 0 0 0 0 0 0 0 1 0 0 0 0 0 0 1x1
** *8 0 0 0 0 0 0 0 0 1 0 0 0 0 0 0 0 1x1
** *9 0 0 0 0 0 0 0 1 0 0 0 0 0 0 0 0 1x1
** *10 0 0 0 0 0 0 1 0 0 0 0 0 0 0 0 0 1x1
** *11 0 0 0 0 0 1 0 0 0 0 0 0 0 0 0 0 1x1
** *12 0 0 0 0 1 0 0 0 0 0 0 0 0 0 0 0 1x1
** *13 0 0 0 1 0 0 0 0 0 0 0 0 0 0 0 0 1x1
** *14 0 0 1 0 0 0 0 0 0 0 0 0 0 0 0 0 1x1
** *15 0 1 0 0 0 0 0 0 0 0 0 0 0 0 0 0 1x1
** *16 1 0 0 0 0 0 0 0 0 0 0 0 0 0 0 0 1x1

** *RESISTOR_TYPES
** *1 SHORTING_ELEMENT
** *2 PRES_NG
** *3 PRES_PG
** *4 PRES_NF
** *5 PRES_PF
** *6 TCN_NDIFF
** *7 TCN_PDIFF
** *8 TCN_NFIELD
** *9 TCN_PFIELD
** *10 QUALITY_EXTRACTED
** *11 GCNLAND
** *12 TCNLAND
** *13 DUMMY
** *14 RSD
** *15 BRIDGE

** *RESISTOR_CURRENT_DIRECTION
** *0 HORIZONTAL
** *1 VERTICAL
** *2 45 DEGREE

** QRC_TECH_DIR /vols/wfo_devel/projects/reference_SKY130/tech/sky130_release_0.0.4/quantus/extraction/typical 
** HIERARCHICAL_SPLIT_PINS_DELIMITER '%'
** caps2d version: 10
*
.SUBCKT  AOI221X1_HS A0 A1 B0 B1 C0 Y
*
*Net Section
*
*|GROUND_NET VSS!
*
*LAYER_MAP
*0 none
*1 metal1
*2 li
*3 poly
*4 diff
*5 licon_diff
*6 mcon
*7 licon
*8 FOX

*|NET B0 1.31164e-15
*|P (B0 X 0 1.8550 2.0750) // $llx=1.8550 $lly=2.0750 $urx=1.8550 $ury=2.0750 $lvl=1
*|I (Mmp2:g Mmp2 g X 0 1.7650 3.0150) // $llx=1.7650 $lly=3.0150 $urx=1.7650 $ury=3.0150 $lvl=3
*|I (Mmn2:g Mmn2 g X 0 1.7650 0.7750) // $llx=1.7650 $lly=0.7750 $urx=1.7650 $ury=0.7750 $lvl=3
*|S (B0:8 1.7650 3.8950) // $llx=1.7650 $lly=3.8950 $urx=1.7650 $ury=3.8950 $lvl=3
*|S (B0:9 1.7650 1.9500) // $llx=1.7650 $lly=1.9500 $urx=1.7650 $ury=1.9500 $lvl=3
*|S (B0:10 1.7650 1.7850) // $llx=1.7650 $lly=1.7850 $urx=1.7650 $ury=1.7850 $lvl=3
*|S (B0:11 1.7650 0.2450) // $llx=1.7650 $lly=0.2450 $urx=1.7650 $ury=0.2450 $lvl=3
*|S (B0:12 2.1450 1.9500) // $llx=2.1450 $lly=1.9500 $urx=2.1450 $ury=1.9500 $lvl=2
*|S (B0:13 1.8450 1.9500) // $llx=1.8450 $lly=1.9500 $urx=1.8450 $ury=1.9500 $lvl=2
*|S (B0:14 1.7650 1.9500) // $llx=1.7650 $lly=1.9500 $urx=1.7650 $ury=1.9500 $lvl=2
*|S (B0:15 1.5900 1.9500) // $llx=1.5900 $lly=1.9500 $urx=1.5900 $ury=1.9500 $lvl=2
*|S (B0:16 1.8400 2.5650) // $llx=1.8400 $lly=2.5650 $urx=1.8400 $ury=2.5650 $lvl=1
*|S (B0:17 1.8450 1.9500) // $llx=1.8450 $lly=1.9500 $urx=1.8450 $ury=1.9500 $lvl=1
*|S (B0:18 1.8400 1.3250) // $llx=1.8400 $lly=1.3250 $urx=1.8400 $ury=1.3250 $lvl=1
CC1 Mmn2:g VSS! 4.19468e-18 $lvl=3
CC2 B0:16 VSS! 9.04815e-18 $lvl=1
CC3 B0:18 VSS! 7.04992e-18 $lvl=1
CC4 B0:8 VSS! 2.89893e-18 $lvl=3
CC5 B0:12 VSS! 1.03863e-17 $lvl=2
CC6 B0:15 VSS! 5.58375e-18 $lvl=2
CC7 B0:13 VSS! 5.1031e-18 $lvl=2
CC8 B0:9 VSS! 2.33431e-17 $lvl=3
CC9 B0:18 net120:3 1.74256e-18 $lvl1=1 $lvl2=2
CC10 B0:18 net120 9.11802e-19 $lvl1=1 $lvl2=2
CC11 Mmn2:g net120:3 1.29406e-16 $lvl1=3 $lvl2=2
CC12 B0:16 net108 5.14974e-18 $lvl1=1 $lvl2=2
CC13 B0:15 net108:5 3.77626e-18 $lvl1=2 $lvl2=2
CC14 B0:9 net108 3.51581e-18 $lvl1=3 $lvl2=2
CC15 B0:9 net108:5 3.29102e-18 $lvl1=3 $lvl2=2
CC16 B0:16 net108:5 3.22152e-18 $lvl1=1 $lvl2=2
CC17 B0:12 net108:10 2.6229e-18 $lvl1=2 $lvl2=2
CC18 B0:12 net108:5 2.49428e-18 $lvl1=2 $lvl2=2
CC19 B0:12 net108:6 2.14142e-18 $lvl1=2 $lvl2=2
CC20 B0:13 net108:5 1.51702e-18 $lvl1=2 $lvl2=2
CC21 B0:16 net108:4 1.23171e-18 $lvl1=1 $lvl2=2
CC22 B0:16 net108:6 1.22805e-18 $lvl1=1 $lvl2=2
CC23 B0:9 Mmp2:d 1.15857e-18 $lvl1=3 $lvl2=4
CC24 B0:8 net108:6 1.10396e-18 $lvl1=3 $lvl2=2
CC25 B0:9 net108:6 1.07049e-18 $lvl1=3 $lvl2=2
CC26 B0:16 net108:14 2.69425e-17 $lvl1=1 $lvl2=1
CC27 B0:16 net108:11 1.00904e-17 $lvl1=1 $lvl2=1
CC28 B0:8 net108 2.54893e-16 $lvl1=3 $lvl2=2
CC29 B0:16 net111:15 4.26826e-18 $lvl1=1 $lvl2=2
CC30 B0:9 net111:11 4.02914e-18 $lvl1=3 $lvl2=2
CC31 B0:12 net111:11 3.32499e-18 $lvl1=2 $lvl2=2
CC32 B0:9 net111:15 3.03554e-18 $lvl1=3 $lvl2=2
CC33 B0:9 Mmp2:s 1.58348e-18 $lvl1=3 $lvl2=4
CC34 B0:13 net111:15 1.28519e-18 $lvl1=2 $lvl2=2
CC35 B0:16 net111:16 1.04678e-18 $lvl1=1 $lvl2=1
CC36 B0:16 net111:18 7.71593e-19 $lvl1=1 $lvl2=1
CC37 B0:8 net111:9 7.65708e-19 $lvl1=3 $lvl2=2
CC38 B0:16 net111:9 6.74818e-19 $lvl1=1 $lvl2=2
CC39 B0:8 net111:15 6.47633e-19 $lvl1=3 $lvl2=2
CC40 B0:16 net111:11 8.17498e-18 $lvl1=1 $lvl2=2
CC41 B0:12 net111:15 1.00999e-17 $lvl1=2 $lvl2=2
CC42 B0:8 net111:11 2.53054e-16 $lvl1=3 $lvl2=2
CC43 B0:18 VSS!:14 4.18675e-18 $lvl1=1 $lvl2=2
CC44 B0:18 VSS!:19 1.6571e-18 $lvl1=1 $lvl2=1
CC45 B0:9 VSS!:14 1.1224e-18 $lvl1=3 $lvl2=2
CC46 Mmn2:g VSS!:14 1.29867e-16 $lvl1=3 $lvl2=2
CC47 Mmn2:g VSS!:9 8.05013e-18 $lvl1=3 $lvl2=2
CC48 B0:16 VDD! 5.27656e-18 $lvl1=1 $lvl2=1
CC49 B0:18 VDD! 3.79022e-18 $lvl1=1 $lvl2=1
CC50 B0:8 VDD!:4 8.61958e-18 $lvl1=3 $lvl2=2
CC51 B0:18 Y 5.42153e-18 $lvl1=1 $lvl2=1
CC52 B0:18 Y:14 4.86487e-18 $lvl1=1 $lvl2=1
CC53 B0:16 Y:18 2.89991e-18 $lvl1=1 $lvl2=1
CC54 B0:16 Y 1.92023e-18 $lvl1=1 $lvl2=1
CC55 B0:12 C0:15 5.79285e-18 $lvl1=2 $lvl2=2
CC56 B0:13 C0:16 3.80186e-18 $lvl1=2 $lvl2=1
CC57 B0:18 C0:15 2.61688e-18 $lvl1=1 $lvl2=2
CC58 B0:18 C0:14 2.46981e-18 $lvl1=1 $lvl2=2
CC59 B0:9 C0:15 2.07268e-18 $lvl1=3 $lvl2=2
CC60 B0:12 C0:14 1.36865e-18 $lvl1=2 $lvl2=2
CC61 B0:12 C0:9 1.13539e-18 $lvl1=2 $lvl2=3
CC62 B0:12 C0:13 8.50768e-19 $lvl1=2 $lvl2=2
CC63 B0:9 C0:9 7.6439e-19 $lvl1=3 $lvl2=3
CC64 B0:16 C0:16 5.96946e-17 $lvl1=1 $lvl2=1
CC65 B0:18 C0:18 1.13335e-17 $lvl1=1 $lvl2=1
CC66 B0:12 C0:16 7.54737e-18 $lvl1=2 $lvl2=1
CC67 B0:18 C0:16 4.59542e-17 $lvl1=1 $lvl2=1
CC68 B0:18 B1:14 6.07633e-18 $lvl1=1 $lvl2=2
CC69 B0:9 B1:9 4.4126e-18 $lvl1=3 $lvl2=3
CC70 B0:13 B1:16 4.3463e-18 $lvl1=2 $lvl2=1
CC71 B0:15 B1:16 3.81154e-18 $lvl1=2 $lvl2=1
CC72 B0:9 B1:14 3.80833e-18 $lvl1=3 $lvl2=2
CC73 B0:12 B1:14 3.22937e-18 $lvl1=2 $lvl2=2
CC74 B0:15 B1:14 3.03805e-18 $lvl1=2 $lvl2=2
CC75 Mmn2:g B1:9 2.61071e-18 $lvl1=3 $lvl2=3
CC76 B0:18 B1:13 2.53341e-18 $lvl1=1 $lvl2=2
CC77 B0:9 B1:8 2.24437e-18 $lvl1=3 $lvl2=3
CC78 B0:13 B1:14 1.77775e-18 $lvl1=2 $lvl2=2
CC79 B0:15 B1:9 1.27775e-18 $lvl1=2 $lvl2=3
CC80 Mmn2:g B1:14 1.17808e-18 $lvl1=3 $lvl2=2
CC81 B0:12 B1:16 9.76227e-19 $lvl1=2 $lvl2=1
CC82 B0:16 B1:16 6.02774e-17 $lvl1=1 $lvl2=1
CC83 B0:18 B1:18 1.098e-17 $lvl1=1 $lvl2=1
CC84 B0:18 B1:16 4.51961e-17 $lvl1=1 $lvl2=1
ReC27 B0:16 B0 0.235577 $metal1  $L=0.49 $W=0.260000 $SI_W=0.26 $TYPE=10 $DIR=1 $LLX=1.710000 $LLY=2.075000 $URX=1.970000 $URY=2.565000 $lvl=1
ReC28 B0 B0:17 0.060096 $metal1  $L=0.125 $W=0.260000 $SI_W=0.26 $TYPE=10 $DIR=1 $LLX=1.725000 $LLY=1.950000 $URX=1.985000 $URY=2.075000 $lvl=1
ReC29 B0:17 B0:18 0.300481 $metal1  $L=0.625 $W=0.260000 $SI_W=0.26 $TYPE=10 $DIR=1 $LLX=1.710000 $LLY=1.325000 $URX=1.970000 $URY=1.950000 $lvl=1
RfC30 B0:12 B0:13 22.588236 $li  $L=0.3 $W=0.170000 $SI_W=0.17 $TYPE=10 $DIR=0 $LLX=1.845000 $LLY=1.865000 $URX=2.145000 $URY=2.035000 $lvl=2
RfC31 B0:13 B0:14 6.023530 $li  $L=0.08 $W=1000000 $SI_W=1000000 $TYPE=1,10 $DIR=0 $LLX=1.765000 $LLY=1.865000 $URX=1.845000 $URY=2.035000 $lvl=2
RfC32 B0:14 B0:15 13.176471 $li  $L=0.175 $W=0.170000 $SI_W=0.17 $TYPE=10 $DIR=0 $LLX=1.590000 $LLY=1.865000 $URX=1.765000 $URY=2.035000 $lvl=2
RgC33 B0:8 Mmp2:g 282.773346 $poly  $L=0.88 $W=0.150000 $SI_W=0.15 $TYPE=10 $DIR=1 $LLX=1.690000 $LLY=3.015000 $URX=1.840000 $URY=3.895000 $lvl=3
RgC34 Mmp2:g B0:9 323.379089 $poly  $L=1.065 $W=0.150000 $SI_W=0.15 $TYPE=10 $DIR=1 $LLX=1.690000 $LLY=1.950000 $URX=1.840000 $URY=3.015000 $lvl=3
RgC35 B0:9 B0:10 34.134449 $poly  $L=0.1645 $W=0.270000 $SI_W=0.27 $TYPE=10 $DIR=1 $LLX=1.630000 $LLY=1.785500 $URX=1.900000 $URY=1.950000 $lvl=3
RgC36 B0:10 Mmn2:g 324.591278 $poly  $L=1.01 $W=0.150000 $SI_W=0.15 $TYPE=10 $DIR=1 $LLX=1.690000 $LLY=0.775000 $URX=1.840000 $URY=1.785000 $lvl=3
RgC37 Mmn2:g B0:11 170.306671 $poly  $L=0.53 $W=0.150000 $SI_W=0.15 $TYPE=10 $DIR=1 $LLX=1.690000 $LLY=0.245000 $URX=1.840000 $URY=0.775000 $lvl=3
RjC38 B0:13 B0:17 152.000000 $mcon  $L=0.17 $W=0.17 $A=0.0289 $VC=0 $SAVL=0 $SAVC=0 $SI_A=0.0289 $COVER_DIR=0 $LLX=0.000000 $LLY=0.000000 $URX=0.170000 $URY=0.170000 $lvl=6
RiC39 B0:9 B0:14 15.000000 $licon  $L=0.17 $W=0.17 $A=0.0289 $VC=0 $SAVL=0 $SAVC=0 $SI_A=0.0289 $COVER_DIR=0 $LLX=0.000000 $LLY=0.000000 $URX=0.170000 $URY=0.170000 $lvl=7
*
*|NET C0 1.33247e-15
*|P (C0 X 0 2.3150 1.5550) // $llx=2.3150 $lly=1.5550 $urx=2.3150 $ury=1.5550 $lvl=1
*|I (Mmp4:g Mmp4 g X 0 2.7150 3.0150) // $llx=2.7150 $lly=3.0150 $urx=2.7150 $ury=3.0150 $lvl=3
*|I (Mmn4:g Mmn4 g X 0 2.7150 0.7750) // $llx=2.7150 $lly=0.7750 $urx=2.7150 $ury=0.7750 $lvl=3
*|S (C0:8 2.7150 3.8950) // $llx=2.7150 $lly=3.8950 $urx=2.7150 $ury=3.8950 $lvl=3
*|S (C0:9 2.7150 1.4300) // $llx=2.7150 $lly=1.4300 $urx=2.7150 $ury=1.4300 $lvl=3
*|S (C0:10 2.7150 1.2650) // $llx=2.7150 $lly=1.2650 $urx=2.7150 $ury=1.2650 $lvl=3
*|S (C0:11 2.7150 0.2450) // $llx=2.7150 $lly=0.2450 $urx=2.7150 $ury=0.2450 $lvl=3
*|S (C0:12 2.8900 1.4300) // $llx=2.8900 $lly=1.4300 $urx=2.8900 $ury=1.4300 $lvl=2
*|S (C0:13 2.7150 1.4300) // $llx=2.7150 $lly=1.4300 $urx=2.7150 $ury=1.4300 $lvl=2
*|S (C0:14 2.3050 1.4300) // $llx=2.3050 $lly=1.4300 $urx=2.3050 $ury=1.4300 $lvl=2
*|S (C0:15 2.1400 1.4300) // $llx=2.1400 $lly=1.4300 $urx=2.1400 $ury=1.4300 $lvl=2
*|S (C0:16 2.3000 2.3700) // $llx=2.3000 $lly=2.3700 $urx=2.3000 $ury=2.3700 $lvl=1
*|S (C0:17 2.3050 1.4300) // $llx=2.3050 $lly=1.4300 $urx=2.3050 $ury=1.4300 $lvl=1
*|S (C0:18 2.3000 1.1300) // $llx=2.3000 $lly=1.1300 $urx=2.3000 $ury=1.1300 $lvl=1
CE1 Mmn4:g VSS! 2.98328e-18 $lvl=3
CE2 C0:16 VSS! 1.61828e-17 $lvl=1
CE3 C0:18 VSS! 8.49768e-18 $lvl=1
CE4 C0:8 VSS! 4.02399e-18 $lvl=3
CE5 C0:13 VSS! 5.37102e-18 $lvl=2
CE6 C0:15 VSS! 1.14538e-17 $lvl=2
CE7 C0:14 VSS! 3.48618e-18 $lvl=2
CE8 C0:9 VSS! 1.86646e-17 $lvl=3
CE9 C0:16 net108:10 5.22671e-18 $lvl1=1 $lvl2=2
CE10 C0:16 net108:6 4.2882e-18 $lvl1=1 $lvl2=2
CE11 C0:16 net108:14 2.32691e-18 $lvl1=1 $lvl2=1
CE12 C0:16 net108:9 1.06421e-18 $lvl1=1 $lvl2=2
CE13 C0:16 net108:11 1.04672e-17 $lvl1=1 $lvl2=1
CE14 C0:8 net108:6 2.52866e-16 $lvl1=3 $lvl2=2
CE15 Mmn4:g VSS!:4 6.2343e-18 $lvl1=3 $lvl2=2
CE16 C0:18 VSS!:1 5.02764e-18 $lvl1=1 $lvl2=2
CE17 C0:18 VSS!:14 4.4769e-18 $lvl1=1 $lvl2=2
CE18 C0:14 VSS!:1 2.2163e-18 $lvl1=2 $lvl2=2
CE19 C0:14 VSS!:14 2.09755e-18 $lvl1=2 $lvl2=2
CE20 Mmn4:g VSS!:9 1.75828e-18 $lvl1=3 $lvl2=2
CE21 C0:9 Mmn4:s 1.51202e-18 $lvl1=3 $lvl2=4
CE22 C0:16 VSS!:19 1.44363e-18 $lvl1=1 $lvl2=1
CE23 C0:18 VSS!:19 1.35973e-18 $lvl1=1 $lvl2=1
CE24 C0:9 VSS!:14 1.13753e-18 $lvl1=3 $lvl2=2
CE25 C0:13 VSS!:1 7.79872e-18 $lvl1=2 $lvl2=2
CE26 C0:15 VSS!:14 1.16805e-17 $lvl1=2 $lvl2=2
CE27 C0:15 VSS!:1 1.33589e-17 $lvl1=2 $lvl2=2
CE28 Mmn4:g VSS!:1 1.29298e-16 $lvl1=3 $lvl2=2
CE29 C0:9 VSS!:1 9.15742e-18 $lvl1=3 $lvl2=2
CE30 C0:9 VDD! 4.21088e-18 $lvl1=3 $lvl2=1
CE31 C0:13 VDD! 2.86361e-18 $lvl1=2 $lvl2=1
CE32 C0:8 VDD!:4 8.6801e-18 $lvl1=3 $lvl2=2
CE33 C0:16 VDD! 7.62216e-18 $lvl1=1 $lvl2=1
CE34 C0:14 Y 3.843e-18 $lvl1=2 $lvl2=1
CE35 C0:18 Y:14 3.49999e-18 $lvl1=1 $lvl2=1
CE36 C0:13 Y:10 3.19291e-18 $lvl1=2 $lvl2=2
CE37 C0:9 Y 3.12296e-18 $lvl1=3 $lvl2=1
CE38 C0:15 Y 2.90243e-18 $lvl1=2 $lvl2=1
CE39 C0:9 Y:5 2.07251e-18 $lvl1=3 $lvl2=2
CE40 C0:9 Mmn4:d 1.74522e-18 $lvl1=3 $lvl2=4
CE41 C0:13 Y:5 1.44599e-18 $lvl1=2 $lvl2=2
CE42 C0:16 Y:5 1.41204e-18 $lvl1=1 $lvl2=2
CE43 C0:16 Y:14 1.27963e-18 $lvl1=1 $lvl2=1
CE44 C0:13 Y:18 1.15756e-18 $lvl1=2 $lvl2=1
CE45 C0:16 Y:8 9.04808e-19 $lvl1=1 $lvl2=2
CE46 C0:9 Y:18 8.09319e-19 $lvl1=3 $lvl2=1
CE47 C0:9 Y:10 6.18423e-19 $lvl1=3 $lvl2=2
CE48 Mmn4:g Y:13 6.08845e-19 $lvl1=3 $lvl2=2
CE49 C0:8 Y:18 5.73532e-19 $lvl1=3 $lvl2=1
CE50 C0:8 Y 5.54183e-19 $lvl1=3 $lvl2=1
CE51 C0:15 Y:9 5.10096e-19 $lvl1=2 $lvl2=2
CE52 C0:13 Y 1.95133e-17 $lvl1=2 $lvl2=1
CE53 C0:16 Y 7.4295e-17 $lvl1=1 $lvl2=1
CE54 C0:18 Y 3.96422e-17 $lvl1=1 $lvl2=1
CE55 C0:8 Y:5 2.53868e-16 $lvl1=3 $lvl2=2
CE56 C0:16 Y:18 4.27754e-17 $lvl1=1 $lvl2=1
CE57 C0:9 Y:9 1.02985e-17 $lvl1=3 $lvl2=2
CE58 C0:13 Y:9 1.12021e-17 $lvl1=2 $lvl2=2
CE59 Mmn4:g Y:9 1.30491e-16 $lvl1=3 $lvl2=2
ReE53 C0:16 C0 0.391827 $metal1  $L=0.815 $W=0.260000 $SI_W=0.26 $TYPE=10 $DIR=1 $LLX=2.170000 $LLY=1.555000 $URX=2.430000 $URY=2.370000 $lvl=1
ReE54 C0 C0:17 0.060096 $metal1  $L=0.125 $W=0.260000 $SI_W=0.26 $TYPE=10 $DIR=1 $LLX=2.185000 $LLY=1.430000 $URX=2.445000 $URY=1.555000 $lvl=1
ReE55 C0:17 C0:18 0.144231 $metal1  $L=0.3 $W=0.260000 $SI_W=0.26 $TYPE=10 $DIR=1 $LLX=2.170000 $LLY=1.130000 $URX=2.430000 $URY=1.430000 $lvl=1
RfE56 C0:12 C0:13 13.176471 $li  $L=0.175 $W=0.170000 $SI_W=0.17 $TYPE=10 $DIR=0 $LLX=2.715000 $LLY=1.345000 $URX=2.890000 $URY=1.515000 $lvl=2
RfE57 C0:13 C0:14 30.870588 $li  $L=0.41 $W=0.170000 $SI_W=0.17 $TYPE=10 $DIR=0 $LLX=2.305000 $LLY=1.345000 $URX=2.715000 $URY=1.515000 $lvl=2
RfE58 C0:14 C0:15 12.423529 $li  $L=0.165 $W=0.170000 $SI_W=0.17 $TYPE=10 $DIR=0 $LLX=2.140000 $LLY=1.345000 $URX=2.305000 $URY=1.515000 $lvl=2
RgE59 C0:8 Mmp4:g 282.773346 $poly  $L=0.88 $W=0.150000 $SI_W=0.15 $TYPE=10 $DIR=1 $LLX=2.640000 $LLY=3.015000 $URX=2.790000 $URY=3.895000 $lvl=3
RgE60 Mmp4:g C0:9 490.472412 $poly  $L=1.585 $W=0.150000 $SI_W=0.15 $TYPE=10 $DIR=1 $LLX=2.640000 $LLY=1.430000 $URX=2.790000 $URY=3.015000 $lvl=3
RgE61 C0:9 C0:10 34.134449 $poly  $L=0.1645 $W=0.270000 $SI_W=0.27 $TYPE=10 $DIR=1 $LLX=2.580000 $LLY=1.265500 $URX=2.850000 $URY=1.430000 $lvl=3
RgE62 C0:10 Mmn4:g 157.497955 $poly  $L=0.49 $W=0.150000 $SI_W=0.15 $TYPE=10 $DIR=1 $LLX=2.640000 $LLY=0.775000 $URX=2.790000 $URY=1.265000 $lvl=3
RgE63 Mmn4:g C0:11 170.306671 $poly  $L=0.53 $W=0.150000 $SI_W=0.15 $TYPE=10 $DIR=1 $LLX=2.640000 $LLY=0.245000 $URX=2.790000 $URY=0.775000 $lvl=3
RjE64 C0:14 C0:17 152.000000 $mcon  $L=0.17 $W=0.17 $A=0.0289 $VC=0 $SAVL=0 $SAVC=0 $SI_A=0.0289 $COVER_DIR=0 $LLX=0.000000 $LLY=0.000000 $URX=0.170000 $URY=0.170000 $lvl=6
RiE65 C0:9 C0:13 15.000000 $licon  $L=0.17 $W=0.17 $A=0.0289 $VC=0 $SAVL=0 $SAVC=0 $SI_A=0.0289 $COVER_DIR=0 $LLX=0.000000 $LLY=0.000000 $URX=0.170000 $URY=0.170000 $lvl=7
*
*|NET A0 1.20409e-15
*|P (A0 X 0 0.4750 1.5550) // $llx=0.4750 $lly=1.5550 $urx=0.4750 $ury=1.5550 $lvl=1
*|I (Mmp0:g Mmp0 g X 0 0.4750 3.0150) // $llx=0.4750 $lly=3.0150 $urx=0.4750 $ury=3.0150 $lvl=3
*|I (Mmn0:g Mmn0 g X 0 0.4750 0.7750) // $llx=0.4750 $lly=0.7750 $urx=0.4750 $ury=0.7750 $lvl=3
*|S (A0:8 0.4750 3.8950) // $llx=0.4750 $lly=3.8950 $urx=0.4750 $ury=3.8950 $lvl=3
*|S (A0:9 0.4750 1.4300) // $llx=0.4750 $lly=1.4300 $urx=0.4750 $ury=1.4300 $lvl=3
*|S (A0:10 0.4750 1.2650) // $llx=0.4750 $lly=1.2650 $urx=0.4750 $ury=1.2650 $lvl=3
*|S (A0:11 0.4750 0.2450) // $llx=0.4750 $lly=0.2450 $urx=0.4750 $ury=0.2450 $lvl=3
*|S (A0:12 0.6500 1.4300) // $llx=0.6500 $lly=1.4300 $urx=0.6500 $ury=1.4300 $lvl=2
*|S (A0:13 0.4750 1.4300) // $llx=0.4750 $lly=1.4300 $urx=0.4750 $ury=1.4300 $lvl=2
*|S (A0:14 0.4650 1.4300) // $llx=0.4650 $lly=1.4300 $urx=0.4650 $ury=1.4300 $lvl=2
*|S (A0:15 0.0950 1.4300) // $llx=0.0950 $lly=1.4300 $urx=0.0950 $ury=1.4300 $lvl=2
*|S (A0:16 0.4600 2.0500) // $llx=0.4600 $lly=2.0500 $urx=0.4600 $ury=2.0500 $lvl=1
*|S (A0:17 0.4650 1.4300) // $llx=0.4650 $lly=1.4300 $urx=0.4650 $ury=1.4300 $lvl=1
*|S (A0:18 0.4600 0.8100) // $llx=0.4600 $lly=0.8100 $urx=0.4600 $ury=0.8100 $lvl=1
CA1 Mmn0:g VSS! 2.54329e-18 $lvl=3
CA2 A0:18 VSS! 8.17132e-18 $lvl=1
CA3 A0:8 VSS! 2.56325e-18 $lvl=3
CA4 A0:15 VSS! 7.83164e-18 $lvl=2
CA5 A0:14 VSS! 7.07213e-18 $lvl=2
CA6 A0:9 VSS! 1.81092e-17 $lvl=3
CA7 A0 VSS! 1.34451e-17 $lvl=1
CA8 A0:18 net128 2.31872e-18 $lvl1=1 $lvl2=2
CA9 A0:9 Mmn0:d 1.29049e-18 $lvl1=3 $lvl2=4
CA10 A0:15 net128:3 5.9028e-19 $lvl1=2 $lvl2=2
CA11 A0:18 net128:4 5.73378e-19 $lvl1=1 $lvl2=2
CA12 A0:14 net128:3 4.11038e-18 $lvl1=2 $lvl2=2
CA13 Mmn0:g net128:3 1.27983e-16 $lvl1=3 $lvl2=2
CA14 A0:9 net128:3 5.1925e-18 $lvl1=3 $lvl2=2
CA15 A0:18 net128:3 1.10508e-17 $lvl1=1 $lvl2=2
CA16 A0:14 net128 9.0695e-18 $lvl1=2 $lvl2=2
CA17 A0:9 net128 2.63719e-18 $lvl1=3 $lvl2=2
CA18 A0 net111:5 4.72053e-18 $lvl1=1 $lvl2=2
CA19 A0 net111:20 3.11353e-18 $lvl1=1 $lvl2=1
CA20 A0:15 net111 1.4726e-18 $lvl1=2 $lvl2=2
CA21 A0:15 net111:5 1.27631e-18 $lvl1=2 $lvl2=2
CA22 A0 net111:18 1.13779e-18 $lvl1=1 $lvl2=1
CA23 A0:8 net111:5 1.10985e-18 $lvl1=3 $lvl2=2
CA24 A0:9 net111 1.0478e-18 $lvl1=3 $lvl2=2
CA25 A0:9 net111:5 8.13999e-19 $lvl1=3 $lvl2=2
CA26 A0:18 net111 7.64985e-19 $lvl1=1 $lvl2=2
CA27 A0:8 net111 2.49592e-16 $lvl1=3 $lvl2=2
CA28 A0 net111 6.34354e-18 $lvl1=1 $lvl2=2
CA29 A0 VSS!:17 3.05246e-18 $lvl1=1 $lvl2=2
CA30 A0 VSS!:19 2.09307e-18 $lvl1=1 $lvl2=1
CA31 A0:9 Mmn0:s 2.01125e-18 $lvl1=3 $lvl2=4
CA32 A0 VSS!:20 1.884e-18 $lvl1=1 $lvl2=1
CA33 A0:18 VSS!:9 1.56934e-18 $lvl1=1 $lvl2=2
CA34 A0:9 VSS!:17 9.28383e-18 $lvl1=3 $lvl2=2
CA35 A0:18 VSS!:19 1.05442e-17 $lvl1=1 $lvl2=1
CA36 A0:14 VSS!:17 7.40585e-18 $lvl1=2 $lvl2=2
CA37 A0:18 VSS!:20 7.09931e-18 $lvl1=1 $lvl2=1
CA38 A0:18 VSS!:17 1.84574e-17 $lvl1=1 $lvl2=2
CA39 Mmn0:g VSS!:9 8.20788e-18 $lvl1=3 $lvl2=2
CA40 Mmn0:g VSS!:17 1.326e-16 $lvl1=3 $lvl2=2
CA41 A0:15 VSS!:17 1.65903e-17 $lvl1=2 $lvl2=2
CA42 A0 VDD!:1 4.13813e-18 $lvl1=1 $lvl2=2
CA43 A0:9 VDD! 3.9856e-18 $lvl1=3 $lvl2=1
CA44 A0:14 VDD! 1.6436e-18 $lvl1=2 $lvl2=1
CA45 A0 VDD!:10 1.19202e-18 $lvl1=1 $lvl2=1
CA46 A0:18 VDD! 1.67833e-17 $lvl1=1 $lvl2=1
CA47 A0:8 VDD!:4 8.19239e-18 $lvl1=3 $lvl2=2
CA48 A0:15 VDD! 8.51849e-18 $lvl1=2 $lvl2=1
CA49 A0:8 VDD!:1 2.59294e-16 $lvl1=3 $lvl2=2
CA50 A0 VDD! 2.21909e-17 $lvl1=1 $lvl2=1
CA51 A0:18 Y:4 3.71291e-18 $lvl1=1 $lvl2=2
CA52 A0:14 Y:4 2.06154e-18 $lvl1=2 $lvl2=2
CA53 A0:18 Y:14 1.16205e-17 $lvl1=1 $lvl2=1
CA54 A0:18 B1:18 2.67758e-18 $lvl1=1 $lvl2=1
CA55 A0 B1:16 2.64532e-18 $lvl1=1 $lvl2=1
CA56 A0:18 B1:16 1.63641e-18 $lvl1=1 $lvl2=1
CA57 A0:14 B1:15 1.58426e-18 $lvl1=2 $lvl2=2
CA58 A0:9 B1:9 1.305e-18 $lvl1=3 $lvl2=3
CA59 A0:9 A1:9 4.63967e-18 $lvl1=3 $lvl2=3
CA60 A0 A1:13 3.45474e-18 $lvl1=1 $lvl2=2
CA61 A0 A1:15 3.2021e-18 $lvl1=1 $lvl2=2
CA62 A0:14 A1:15 2.66592e-18 $lvl1=2 $lvl2=2
CA63 A0:9 Mmn1:g 2.58258e-18 $lvl1=3 $lvl2=3
CA64 A0:8 A1:9 2.40636e-18 $lvl1=3 $lvl2=3
CA65 A0:14 A1:9 2.35814e-18 $lvl1=2 $lvl2=3
CA66 A0:14 A1:13 1.71824e-18 $lvl1=2 $lvl2=2
CA67 A0:14 A1:14 1.43422e-18 $lvl1=2 $lvl2=2
CA68 A0:9 A1:15 1.26065e-18 $lvl1=3 $lvl2=2
CA69 A0:18 A1:16 1.18164e-18 $lvl1=1 $lvl2=1
CA70 A0 A1:9 1.05679e-18 $lvl1=1 $lvl2=3
CA71 A0:15 A1:15 7.13013e-19 $lvl1=2 $lvl2=2
CA72 A0:9 A1:18 5.83233e-19 $lvl1=3 $lvl2=1
CA73 A0:9 A1:14 5.75508e-19 $lvl1=3 $lvl2=2
CA74 A0 A1:16 3.80151e-17 $lvl1=1 $lvl2=1
CA75 A0:18 A1:18 1.56005e-17 $lvl1=1 $lvl2=1
CA76 A0 A1:18 4.44438e-17 $lvl1=1 $lvl2=1
CA77 A0:14 A1:18 6.26995e-18 $lvl1=2 $lvl2=1
ReA1 A0:16 A0 0.237981 $metal1  $L=0.495 $W=0.260000 $SI_W=0.26 $TYPE=10 $DIR=1 $LLX=0.330000 $LLY=1.555000 $URX=0.590000 $URY=2.050000 $lvl=1
ReA2 A0 A0:17 0.060096 $metal1  $L=0.125 $W=0.260000 $SI_W=0.26 $TYPE=10 $DIR=1 $LLX=0.345000 $LLY=1.430000 $URX=0.605000 $URY=1.555000 $lvl=1
ReA3 A0:17 A0:18 0.298077 $metal1  $L=0.62 $W=0.260000 $SI_W=0.26 $TYPE=10 $DIR=1 $LLX=0.330000 $LLY=0.810000 $URX=0.590000 $URY=1.430000 $lvl=1
RfA4 A0:12 A0:13 13.176471 $li  $L=0.175 $W=0.170000 $SI_W=0.17 $TYPE=10 $DIR=0 $LLX=0.475000 $LLY=1.345000 $URX=0.650000 $URY=1.515000 $lvl=2
RfA5 A0:13 A0:14 0.752941 $li  $L=0.01 $W=1000000 $SI_W=1000000 $TYPE=1,10 $DIR=0 $LLX=0.465000 $LLY=1.345000 $URX=0.475000 $URY=1.515000 $lvl=2
RfA6 A0:14 A0:15 27.858826 $li  $L=0.37 $W=0.170000 $SI_W=0.17 $TYPE=10 $DIR=0 $LLX=0.095000 $LLY=1.345000 $URX=0.465000 $URY=1.515000 $lvl=2
RgA7 A0:8 Mmp0:g 282.773346 $poly  $L=0.88 $W=0.150000 $SI_W=0.15 $TYPE=10 $DIR=1 $LLX=0.400000 $LLY=3.015000 $URX=0.550000 $URY=3.895000 $lvl=3
RgA8 Mmp0:g A0:9 490.472412 $poly  $L=1.585 $W=0.150000 $SI_W=0.15 $TYPE=10 $DIR=1 $LLX=0.400000 $LLY=1.430000 $URX=0.550000 $URY=3.015000 $lvl=3
RgA9 A0:9 A0:10 34.134449 $poly  $L=0.1645 $W=0.270000 $SI_W=0.27 $TYPE=10 $DIR=1 $LLX=0.340000 $LLY=1.265500 $URX=0.610000 $URY=1.430000 $lvl=3
RgA10 A0:10 Mmn0:g 157.497955 $poly  $L=0.49 $W=0.150000 $SI_W=0.15 $TYPE=10 $DIR=1 $LLX=0.400000 $LLY=0.775000 $URX=0.550000 $URY=1.265000 $lvl=3
RgA11 Mmn0:g A0:11 170.306671 $poly  $L=0.53 $W=0.150000 $SI_W=0.15 $TYPE=10 $DIR=1 $LLX=0.400000 $LLY=0.245000 $URX=0.550000 $URY=0.775000 $lvl=3
RjA12 A0:14 A0:17 152.000000 $mcon  $L=0.17 $W=0.17 $A=0.0289 $VC=0 $SAVL=0 $SAVC=0 $SI_A=0.0289 $COVER_DIR=0 $LLX=0.000000 $LLY=0.000000 $URX=0.170000 $URY=0.170000 $lvl=6
RiA13 A0:9 A0:13 15.000000 $licon  $L=0.17 $W=0.17 $A=0.0289 $VC=0 $SAVL=0 $SAVC=0 $SI_A=0.0289 $COVER_DIR=0 $LLX=0.000000 $LLY=0.000000 $URX=0.170000 $URY=0.170000 $lvl=7
*
*|NET B1 1.31032e-15
*|P (B1 X 0 1.3950 1.5550) // $llx=1.3950 $lly=1.5550 $urx=1.3950 $ury=1.5550 $lvl=1
*|I (Mmp3:g Mmp3 g X 0 1.3350 3.0150) // $llx=1.3350 $lly=3.0150 $urx=1.3350 $ury=3.0150 $lvl=3
*|I (Mmn3:g Mmn3 g X 0 1.3350 0.7750) // $llx=1.3350 $lly=0.7750 $urx=1.3350 $ury=0.7750 $lvl=3
*|S (B1:8 1.3350 3.8950) // $llx=1.3350 $lly=3.8950 $urx=1.3350 $ury=3.8950 $lvl=3
*|S (B1:9 1.3350 1.4300) // $llx=1.3350 $lly=1.4300 $urx=1.3350 $ury=1.4300 $lvl=3
*|S (B1:10 1.3350 1.2650) // $llx=1.3350 $lly=1.2650 $urx=1.3350 $ury=1.2650 $lvl=3
*|S (B1:11 1.3350 0.2450) // $llx=1.3350 $lly=0.2450 $urx=1.3350 $ury=0.2450 $lvl=3
*|S (B1:12 1.7150 1.4300) // $llx=1.7150 $lly=1.4300 $urx=1.7150 $ury=1.4300 $lvl=2
*|S (B1:13 1.3850 1.4300) // $llx=1.3850 $lly=1.4300 $urx=1.3850 $ury=1.4300 $lvl=2
*|S (B1:14 1.3350 1.4300) // $llx=1.3350 $lly=1.4300 $urx=1.3350 $ury=1.4300 $lvl=2
*|S (B1:15 1.1600 1.4300) // $llx=1.1600 $lly=1.4300 $urx=1.1600 $ury=1.4300 $lvl=2
*|S (B1:16 1.3800 2.3900) // $llx=1.3800 $lly=2.3900 $urx=1.3800 $ury=2.3900 $lvl=1
*|S (B1:17 1.3850 1.4300) // $llx=1.3850 $lly=1.4300 $urx=1.3850 $ury=1.4300 $lvl=1
*|S (B1:18 1.3800 1.1500) // $llx=1.3800 $lly=1.1500 $urx=1.3800 $ury=1.1500 $lvl=1
CD1 Mmn3:g VSS! 3.70919e-18 $lvl=3
CD2 B1:16 VSS! 1.45843e-17 $lvl=1
CD3 B1:18 VSS! 7.14438e-18 $lvl=1
CD4 B1:8 VSS! 4.10745e-18 $lvl=3
CD5 B1:14 VSS! 8.14266e-18 $lvl=2
CD6 B1:15 VSS! 5.48446e-18 $lvl=2
CD7 B1:13 VSS! 5.70324e-18 $lvl=2
CD8 B1:9 VSS! 2.27278e-17 $lvl=3
CD9 B1:13 net120 1.52517e-18 $lvl1=2 $lvl2=2
CD10 B1:13 net120:3 1.35795e-18 $lvl1=2 $lvl2=2
CD11 B1:18 net120 1.34609e-18 $lvl1=1 $lvl2=2
CD12 B1:9 Mmn3:s 1.26717e-18 $lvl1=3 $lvl2=4
CD13 B1:14 net120 1.19844e-17 $lvl1=2 $lvl2=2
CD14 Mmn3:g net120:3 1.26644e-16 $lvl1=3 $lvl2=2
CD15 B1:9 net120 2.41313e-18 $lvl1=3 $lvl2=2
CD16 B1:9 net120:3 5.24719e-18 $lvl1=3 $lvl2=2
CD17 B1:18 net120:3 3.69297e-18 $lvl1=1 $lvl2=2
CD18 B1:14 net120:3 4.95351e-18 $lvl1=2 $lvl2=2
CD19 B1:16 net108:5 4.56579e-18 $lvl1=1 $lvl2=2
CD20 B1:16 net108 4.13161e-18 $lvl1=1 $lvl2=2
CD21 B1:16 net108:14 8.79347e-18 $lvl1=1 $lvl2=1
CD22 B1:8 net108 2.54197e-16 $lvl1=3 $lvl2=2
CD23 B1:16 net111:9 3.55439e-18 $lvl1=1 $lvl2=2
CD24 B1:16 net111:10 3.37671e-18 $lvl1=1 $lvl2=2
CD25 B1:16 net111:18 1.97708e-18 $lvl1=1 $lvl2=1
CD26 B1:8 net111:9 2.45921e-16 $lvl1=3 $lvl2=2
CD27 B1:18 VSS!:19 1.56607e-18 $lvl1=1 $lvl2=1
CD28 B1:16 VSS!:19 1.52512e-18 $lvl1=1 $lvl2=1
CD29 B1:18 VSS!:14 1.26087e-18 $lvl1=1 $lvl2=2
CD30 B1:14 VSS!:14 6.70492e-18 $lvl1=2 $lvl2=2
CD31 Mmn3:g VSS!:9 7.46538e-18 $lvl1=3 $lvl2=2
CD32 B1:18 VDD! 2.67154e-18 $lvl1=1 $lvl2=1
CD33 B1:8 VDD!:4 9.2301e-18 $lvl1=3 $lvl2=2
CD34 B1:16 VDD! 8.089e-18 $lvl1=1 $lvl2=1
CD35 B1:18 Y:4 5.02611e-18 $lvl1=1 $lvl2=2
CD36 B1:14 Y:4 4.12003e-18 $lvl1=2 $lvl2=2
CD37 B1:13 Y:4 3.27183e-18 $lvl1=2 $lvl2=2
CD38 B1:16 Y:14 3.0492e-18 $lvl1=1 $lvl2=1
CD39 B1:18 Y 1.99858e-18 $lvl1=1 $lvl2=1
CD40 B1:16 Y 1.86715e-18 $lvl1=1 $lvl2=1
CD41 B1:18 Y:14 1.53207e-17 $lvl1=1 $lvl2=1
CD42 Mmn3:g Y:4 1.29208e-16 $lvl1=3 $lvl2=2
CD43 B1:15 Y:4 6.61575e-18 $lvl1=2 $lvl2=2
CD44 B1:9 Y:4 8.96746e-18 $lvl1=3 $lvl2=2
CD45 B1:14 C0:15 3.23638e-18 $lvl1=2 $lvl2=2
CD46 B1:16 C0:16 2.65777e-18 $lvl1=1 $lvl2=1
ReD40 B1:16 B1 0.401442 $metal1  $L=0.835 $W=0.260000 $SI_W=0.26 $TYPE=10 $DIR=1 $LLX=1.250000 $LLY=1.555000 $URX=1.510000 $URY=2.390000 $lvl=1
ReD41 B1 B1:17 0.060096 $metal1  $L=0.125 $W=0.260000 $SI_W=0.26 $TYPE=10 $DIR=1 $LLX=1.265000 $LLY=1.430000 $URX=1.525000 $URY=1.555000 $lvl=1
ReD42 B1:17 B1:18 0.134615 $metal1  $L=0.28 $W=0.260000 $SI_W=0.26 $TYPE=10 $DIR=1 $LLX=1.250000 $LLY=1.150000 $URX=1.510000 $URY=1.430000 $lvl=1
RfD43 B1:12 B1:13 24.847057 $li  $L=0.33 $W=0.170000 $SI_W=0.17 $TYPE=10 $DIR=0 $LLX=1.385000 $LLY=1.345000 $URX=1.715000 $URY=1.515000 $lvl=2
RfD44 B1:13 B1:14 3.764706 $li  $L=0.05 $W=1000000 $SI_W=1000000 $TYPE=1,10 $DIR=0 $LLX=1.335000 $LLY=1.345000 $URX=1.385000 $URY=1.515000 $lvl=2
RfD45 B1:14 B1:15 13.176471 $li  $L=0.175 $W=0.170000 $SI_W=0.17 $TYPE=10 $DIR=0 $LLX=1.160000 $LLY=1.345000 $URX=1.335000 $URY=1.515000 $lvl=2
RgD46 B1:8 Mmp3:g 282.773346 $poly  $L=0.88 $W=0.150000 $SI_W=0.15 $TYPE=10 $DIR=1 $LLX=1.260000 $LLY=3.015000 $URX=1.410000 $URY=3.895000 $lvl=3
RgD47 Mmp3:g B1:9 490.472412 $poly  $L=1.585 $W=0.150000 $SI_W=0.15 $TYPE=10 $DIR=1 $LLX=1.260000 $LLY=1.430000 $URX=1.410000 $URY=3.015000 $lvl=3
RgD48 B1:9 B1:10 34.134449 $poly  $L=0.1645 $W=0.270000 $SI_W=0.27 $TYPE=10 $DIR=1 $LLX=1.200000 $LLY=1.265500 $URX=1.470000 $URY=1.430000 $lvl=3
RgD49 B1:10 Mmn3:g 157.497955 $poly  $L=0.49 $W=0.150000 $SI_W=0.15 $TYPE=10 $DIR=1 $LLX=1.260000 $LLY=0.775000 $URX=1.410000 $URY=1.265000 $lvl=3
RgD50 Mmn3:g B1:11 170.306671 $poly  $L=0.53 $W=0.150000 $SI_W=0.15 $TYPE=10 $DIR=1 $LLX=1.260000 $LLY=0.245000 $URX=1.410000 $URY=0.775000 $lvl=3
RjD51 B1:13 B1:17 152.000000 $mcon  $L=0.17 $W=0.17 $A=0.0289 $VC=0 $SAVL=0 $SAVC=0 $SI_A=0.0289 $COVER_DIR=0 $LLX=0.000000 $LLY=0.000000 $URX=0.170000 $URY=0.170000 $lvl=6
RiD52 B1:9 B1:14 15.000000 $licon  $L=0.17 $W=0.17 $A=0.0289 $VC=0 $SAVL=0 $SAVC=0 $SI_A=0.0289 $COVER_DIR=0 $LLX=0.000000 $LLY=0.000000 $URX=0.170000 $URY=0.170000 $lvl=7
*
*|NET net120 4.70875e-16
*|I (Mmn3:s Mmn3 s X 0 1.4105 0.7750) // $llx=1.4105 $lly=0.7750 $urx=1.4105 $ury=0.7750 $lvl=4
*|I (Mmn2:d Mmn2 d X 0 1.6895 0.7750) // $llx=1.6895 $lly=0.7750 $urx=1.6895 $ury=0.7750 $lvl=4
*|S (net120 1.5500 1.1545) // $llx=1.5500 $lly=1.1545 $urx=1.5500 $ury=1.1545 $lvl=2
*|S (net120:3 1.5500 0.7700) // $llx=1.5500 $lly=0.7700 $urx=1.5500 $ury=0.7700 $lvl=2
*|S (net120:4 1.5500 0.3950) // $llx=1.5500 $lly=0.3950 $urx=1.5500 $ury=0.3950 $lvl=2
CK1 Mmn3:s VSS! 1.66933e-18 $lvl=4
CK2 net120:3 VSS! 1.26187e-17 $lvl=2
CK3 net120:4 VSS! 1.46619e-18 $lvl=2
CK4 net120 VSS! 3.53048e-18 $lvl=2
CK5 Mmn3:s VSS!:9 2.15983e-18 $lvl1=4 $lvl2=2
CK6 net120:4 VSS!:6 1.98464e-18 $lvl1=2 $lvl2=2
CK7 net120:4 VSS!:19 1.7476e-18 $lvl1=2 $lvl2=1
CK8 net120:3 VSS!:19 1.3392e-18 $lvl1=2 $lvl2=1
CK9 net120:3 VSS!:6 1.21112e-18 $lvl1=2 $lvl2=2
CK10 net120:3 VSS!:7 9.65899e-19 $lvl1=2 $lvl2=4
CK11 net120:3 Mmn2:s 8.13738e-19 $lvl1=2 $lvl2=4
CK12 net120:4 VSS!:9 1.12262e-17 $lvl1=2 $lvl2=2
CK13 net120:4 VSS!:14 3.5555e-18 $lvl1=2 $lvl2=2
CK14 net120 VSS!:14 3.61761e-18 $lvl1=2 $lvl2=2
CK15 net120:3 VSS!:9 1.11695e-17 $lvl1=2 $lvl2=2
CK16 net120:3 VSS!:14 4.57824e-17 $lvl1=2 $lvl2=2
RfK161 net120 net120:3 28.950588 $li  $L=0.3845 $W=0.170000 $SI_W=0.17 $TYPE=10 $DIR=1 $LLX=1.465000 $LLY=0.770000 $URX=1.635000 $URY=1.154500 $lvl=2
RfK162 net120:3 net120:4 28.235294 $li  $L=0.375 $W=0.170000 $SI_W=0.17 $TYPE=10 $DIR=1 $LLX=1.465000 $LLY=0.395000 $URX=1.635000 $URY=0.770000 $lvl=2
RhK163 Mmn3:s net120:3 7.500000 $licon_diff  $A=0.0578 $VC=0 $SAVL=0 $SAVC=0 $SI_A=0.0578 $COVER_DIR=0 $LLX=0.000000 $LLY=0.000000 $URX=-0.057800 $URY=-2.000000 $lvl=5
RmwK164 Mmn2:d Mmn3:s 0.001000 $diff $W=1000000 $SI_W=1000000 $TYPE=1 $DIR=0
*
*|NET A1 1.28249e-15
*|P (A1 X 0 0.9350 2.0750) // $llx=0.9350 $lly=2.0750 $urx=0.9350 $ury=2.0750 $lvl=1
*|I (Mmp1:g Mmp1 g X 0 0.9050 3.0150) // $llx=0.9050 $lly=3.0150 $urx=0.9050 $ury=3.0150 $lvl=3
*|I (Mmn1:g Mmn1 g X 0 0.9050 0.7750) // $llx=0.9050 $lly=0.7750 $urx=0.9050 $ury=0.7750 $lvl=3
*|S (A1:8 0.9050 3.8950) // $llx=0.9050 $lly=3.8950 $urx=0.9050 $ury=3.8950 $lvl=3
*|S (A1:9 0.9150 1.9500) // $llx=0.9150 $lly=1.9500 $urx=0.9150 $ury=1.9500 $lvl=3
*|S (A1:10 0.9150 1.7850) // $llx=0.9150 $lly=1.7850 $urx=0.9150 $ury=1.7850 $lvl=3
*|S (A1:11 0.9050 0.2450) // $llx=0.9050 $lly=0.2450 $urx=0.9050 $ury=0.2450 $lvl=3
*|S (A1:12 1.2850 1.9500) // $llx=1.2850 $lly=1.9500 $urx=1.2850 $ury=1.9500 $lvl=2
*|S (A1:13 0.9250 1.9500) // $llx=0.9250 $lly=1.9500 $urx=0.9250 $ury=1.9500 $lvl=2
*|S (A1:14 0.9150 1.9500) // $llx=0.9150 $lly=1.9500 $urx=0.9150 $ury=1.9500 $lvl=2
*|S (A1:15 0.7300 1.9500) // $llx=0.7300 $lly=1.9500 $urx=0.7300 $ury=1.9500 $lvl=2
*|S (A1:16 0.9200 2.5650) // $llx=0.9200 $lly=2.5650 $urx=0.9200 $ury=2.5650 $lvl=1
*|S (A1:17 0.9250 1.9500) // $llx=0.9250 $lly=1.9500 $urx=0.9250 $ury=1.9500 $lvl=1
*|S (A1:18 0.9200 1.3250) // $llx=0.9200 $lly=1.3250 $urx=0.9200 $ury=1.3250 $lvl=1
CB1 Mmn1:g VSS! 2.88036e-18 $lvl=3
CB2 Mmp1:g VSS! 2.78909e-18 $lvl=3
CB3 A1:16 VSS! 1.34104e-17 $lvl=1
CB4 A1:18 VSS! 9.97147e-18 $lvl=1
CB5 A1:14 VSS! 6.5208e-18 $lvl=2
CB6 A1:15 VSS! 3.82637e-18 $lvl=2
CB7 A1:13 VSS! 4.92396e-18 $lvl=2
CB8 A1:9 VSS! 1.89568e-17 $lvl=3
CB9 A1:18 net128:3 1.98882e-18 $lvl1=1 $lvl2=2
CB10 A1:18 net128 1.43749e-18 $lvl1=1 $lvl2=2
CB11 Mmn1:g net128 4.89624e-19 $lvl1=3 $lvl2=2
CB12 Mmn1:g net128:3 1.27836e-16 $lvl1=3 $lvl2=2
CB13 A1:14 net108:5 2.96829e-18 $lvl1=2 $lvl2=2
CB14 A1:14 net108 1.33886e-18 $lvl1=2 $lvl2=2
CB15 A1:16 net108:14 7.01324e-18 $lvl1=1 $lvl2=1
CB16 A1:16 net111:20 5.86973e-18 $lvl1=1 $lvl2=1
CB17 A1:16 net111 4.86227e-18 $lvl1=1 $lvl2=2
CB18 A1:16 net111:10 4.12188e-18 $lvl1=1 $lvl2=2
CB19 A1:9 net111:9 3.83277e-18 $lvl1=3 $lvl2=2
CB20 A1:9 net111:10 3.04019e-18 $lvl1=3 $lvl2=2