*
*|DSPF 1.5
*
*|DATE "Wed Jan  8 23:38:01 2025"
*|VENDOR "Cadence Design Systems"
*|PROGRAM "Cadence Quantus Extraction"
*|VERSION "22.1.0-p089 Linux 64 bit - (Thu Jan 19 11:47:08 PST 2023)"
*|DESIGN AOI211X2_HS
*|DIVIDER /
*|DELIMITER :
*|DeviceFingerDelim "@"
*|BUSBIT []
*|GLOBAL_TEMPERATURE 25
*|OPERATING_TEMPERATURE 25

** *VIA_COVERAGE_CODES
** *index FF FS FP FU SF SS SP SU PF PS PP PU UF US UP UU X_by_Y
** * "FF" stands for Full landing and Full coverage
** *0 0 0 0 0 0 0 0 0 0 0 0 0 0 0 0 0
** *1 0 0 0 0 0 0 0 0 0 0 0 0 0 0 0 1 1x1
** *2 0 0 0 0 0 0 0 0 0 0 0 0 0 0 1 0 1x1
** *3 0 0 0 0 0 0 0 0 0 0 0 0 0 1 0 0 1x1
** *4 0 0 0 0 0 0 0 0 0 0 0 0 1 0 0 0 1x1
** *5 0 0 0 0 0 0 0 0 0 0 0 1 0 0 0 0 1x1
** *6 0 0 0 0 0 0 0 0 0 0 1 0 0 0 0 0 1x1
** *7 0 0 0 0 0 0 0 0 0 1 0 0 0 0 0 0 1x1
** *8 0 0 0 0 0 0 0 0 1 0 0 0 0 0 0 0 1x1
** *9 0 0 0 0 0 0 0 1 0 0 0 0 0 0 0 0 1x1
** *10 0 0 0 0 0 0 1 0 0 0 0 0 0 0 0 0 1x1
** *11 0 0 0 0 0 1 0 0 0 0 0 0 0 0 0 0 1x1
** *12 0 0 0 0 1 0 0 0 0 0 0 0 0 0 0 0 1x1
** *13 0 0 0 1 0 0 0 0 0 0 0 0 0 0 0 0 1x1
** *14 0 0 1 0 0 0 0 0 0 0 0 0 0 0 0 0 1x1
** *15 0 1 0 0 0 0 0 0 0 0 0 0 0 0 0 0 1x1
** *16 1 0 0 0 0 0 0 0 0 0 0 0 0 0 0 0 1x1

** *RESISTOR_TYPES
** *1 SHORTING_ELEMENT
** *2 PRES_NG
** *3 PRES_PG
** *4 PRES_NF
** *5 PRES_PF
** *6 TCN_NDIFF
** *7 TCN_PDIFF
** *8 TCN_NFIELD
** *9 TCN_PFIELD
** *10 QUALITY_EXTRACTED
** *11 GCNLAND
** *12 TCNLAND
** *13 DUMMY
** *14 RSD
** *15 BRIDGE

** *RESISTOR_CURRENT_DIRECTION
** *0 HORIZONTAL
** *1 VERTICAL
** *2 45 DEGREE

** QRC_TECH_DIR /vols/wfo_devel/projects/reference_SKY130/tech/sky130_release_0.0.4/quantus/extraction/typical 
** HIERARCHICAL_SPLIT_PINS_DELIMITER '%'
** caps2d version: 10
*
.SUBCKT  AOI211X2_HS A0 A1 B0 C0 Y
*
*Net Section
*
*|GROUND_NET VSS!
*
*LAYER_MAP
*0 none
*1 metal1
*2 li
*3 poly
*4 diff
*5 licon_diff
*6 mcon
*7 licon
*8 FOX

*|NET net82 2.37148e-15
*|I (Mmp3:s Mmp3 s X 0 3.4995 3.0150) // $llx=3.4995 $lly=3.0150 $urx=3.4995 $ury=3.0150 $lvl=4
*|I (Mmp3@1:s Mmp3@1 s X 0 4.0805 3.0150) // $llx=4.0805 $lly=3.0150 $urx=4.0805 $ury=3.0150 $lvl=4
*|I (Mmp2:d Mmp2 d X 0 2.6395 3.0150) // $llx=2.6395 $lly=3.0150 $urx=2.6395 $ury=3.0150 $lvl=4
*|I (Mmp2@1:d Mmp2@1 d X 0 3.2205 3.0150) // $llx=3.2205 $lly=3.0150 $urx=3.2205 $ury=3.0150 $lvl=4
*|S (net82 2.5000 3.7450) // $llx=2.5000 $lly=3.7450 $urx=2.5000 $ury=3.7450 $lvl=2
*|S (net82:2 2.5000 3.3750) // $llx=2.5000 $lly=3.3750 $urx=2.5000 $ury=3.3750 $lvl=2
*|S (net82:4 2.5000 3.0150) // $llx=2.5000 $lly=3.0150 $urx=2.5000 $ury=3.0150 $lvl=2
*|S (net82:5 2.5000 2.2850) // $llx=2.5000 $lly=2.2850 $urx=2.5000 $ury=2.2850 $lvl=2
*|S (net82:6 3.3600 3.7450) // $llx=3.3600 $lly=3.7450 $urx=3.3600 $ury=3.7450 $lvl=2
*|S (net82:7 3.3600 3.3750) // $llx=3.3600 $lly=3.3750 $urx=3.3600 $ury=3.3750 $lvl=2
*|S (net82:9 3.3600 3.0150) // $llx=3.3600 $lly=3.0150 $urx=3.3600 $ury=3.0150 $lvl=2
*|S (net82:10 3.3600 2.2850) // $llx=3.3600 $lly=2.2850 $urx=3.3600 $ury=2.2850 $lvl=2
*|S (net82:11 4.2200 3.7450) // $llx=4.2200 $lly=3.7450 $urx=4.2200 $ury=3.7450 $lvl=2
*|S (net82:12 4.2200 3.3750) // $llx=4.2200 $lly=3.3750 $urx=4.2200 $ury=3.3750 $lvl=2
*|S (net82:14 4.2200 3.0150) // $llx=4.2200 $lly=3.0150 $urx=4.2200 $ury=3.0150 $lvl=2
*|S (net82:15 4.2200 2.2850) // $llx=4.2200 $lly=2.2850 $urx=4.2200 $ury=2.2850 $lvl=2
*|S (net82:16 4.3650 3.3750) // $llx=4.3650 $lly=3.3750 $urx=4.3650 $ury=3.3750 $lvl=1
*|S (net82:17 4.2200 3.3750) // $llx=4.2200 $lly=3.3750 $urx=4.2200 $ury=3.3750 $lvl=1
*|S (net82:18 3.3600 3.3750) // $llx=3.3600 $lly=3.3750 $urx=3.3600 $ury=3.3750 $lvl=1
*|S (net82:19 2.5000 3.3750) // $llx=2.5000 $lly=3.3750 $urx=2.5000 $ury=3.3750 $lvl=1
*|S (net82:20 2.3550 3.3750) // $llx=2.3550 $lly=3.3750 $urx=2.3550 $ury=3.3750 $lvl=1
CJ1 Mmp2:d VSS! 2.4302e-18 $lvl=4
CJ2 Mmp3@1:s VSS! 2.79131e-18 $lvl=4
CJ3 Mmp3:s VSS! 1.22777e-18 $lvl=4
CJ4 net82:18 VSS! 5.3034e-18 $lvl=1
CJ5 net82:16 VSS! 7.87607e-18 $lvl=1
CJ6 net82:20 VSS! 6.68456e-18 $lvl=1
CJ7 net82:11 VSS! 8.41044e-18 $lvl=2
CJ8 net82:15 VSS! 4.50806e-18 $lvl=2
CJ9 net82:9 VSS! 4.46906e-18 $lvl=2
CJ10 net82:10 VSS! 3.06971e-18 $lvl=2
CJ11 net82:5 VSS! 1.09476e-17 $lvl=2
CJ12 net82:2 VSS! 4.74185e-18 $lvl=2
CJ13 net82:7 VSS! 3.0664e-18 $lvl=2
CJ14 net82:12 VSS! 4.27638e-18 $lvl=2
CJ15 net82 VSS! 1.18432e-17 $lvl=2
ReJ228 net82:16 net82:17 0.078804 $metal1  $L=0.145 $W=0.230000 $SI_W=0.23 $TYPE=10 $DIR=0 $LLX=4.220000 $LLY=3.260000 $URX=4.365000 $URY=3.490000 $lvl=1
ReJ229 net82:17 net82:18 0.467391 $metal1  $L=0.86 $W=0.230000 $SI_W=0.23 $TYPE=10 $DIR=0 $LLX=3.360000 $LLY=3.260000 $URX=4.220000 $URY=3.490000 $lvl=1
ReJ230 net82:18 net82:19 0.467391 $metal1  $L=0.86 $W=0.230000 $SI_W=0.23 $TYPE=10 $DIR=0 $LLX=2.500000 $LLY=3.260000 $URX=3.360000 $URY=3.490000 $lvl=1
ReJ231 net82:19 net82:20 0.078804 $metal1  $L=0.145 $W=0.230000 $SI_W=0.23 $TYPE=10 $DIR=0 $LLX=2.355000 $LLY=3.260000 $URX=2.500000 $URY=3.490000 $lvl=1
RfJ232 net82 net82:2 27.858822 $li  $L=0.37 $W=0.170000 $SI_W=0.17 $TYPE=10 $DIR=1 $LLX=2.415000 $LLY=3.375000 $URX=2.585000 $URY=3.745000 $lvl=2
RfJ233 net82:2 net82:4 27.105885 $li  $L=0.36 $W=0.170000 $SI_W=0.17 $TYPE=10 $DIR=1 $LLX=2.415000 $LLY=3.015000 $URX=2.585000 $URY=3.375000 $lvl=2
RfJ234 net82:4 net82:5 54.964703 $li  $L=0.73 $W=0.170000 $SI_W=0.17 $TYPE=10 $DIR=1 $LLX=2.415000 $LLY=2.285000 $URX=2.585000 $URY=3.015000 $lvl=2
RfJ235 net82:6 net82:7 27.858822 $li  $L=0.37 $W=0.170000 $SI_W=0.17 $TYPE=10 $DIR=1 $LLX=3.275000 $LLY=3.375000 $URX=3.445000 $URY=3.745000 $lvl=2
RfJ236 net82:7 net82:9 27.105885 $li  $L=0.36 $W=0.170000 $SI_W=0.17 $TYPE=10 $DIR=1 $LLX=3.275000 $LLY=3.015000 $URX=3.445000 $URY=3.375000 $lvl=2
RfJ237 net82:9 net82:10 54.964703 $li  $L=0.73 $W=0.170000 $SI_W=0.17 $TYPE=10 $DIR=1 $LLX=3.275000 $LLY=2.285000 $URX=3.445000 $URY=3.015000 $lvl=2
RfJ238 net82:11 net82:12 27.858822 $li  $L=0.37 $W=0.170000 $SI_W=0.17 $TYPE=10 $DIR=1 $LLX=4.135000 $LLY=3.375000 $URX=4.305000 $URY=3.745000 $lvl=2
RfJ239 net82:12 net82:14 27.105885 $li  $L=0.36 $W=0.170000 $SI_W=0.17 $TYPE=10 $DIR=1 $LLX=4.135000 $LLY=3.015000 $URX=4.305000 $URY=3.375000 $lvl=2
RfJ240 net82:14 net82:15 54.964703 $li  $L=0.73 $W=0.170000 $SI_W=0.17 $TYPE=10 $DIR=1 $LLX=4.135000 $LLY=2.285000 $URX=4.305000 $URY=3.015000 $lvl=2
Rh_2_J241 Mmp2:d net82:4 3.750000 $licon_diff  $A=0.1156 $VC=0 $SAVL=0 $SAVC=0 $SI_A=0.1156 $COVER_DIR=0 $LLX=0.000000 $LLY=0.000000 $URX=-0.115600 $URY=-4.000000 $lvl=5
Rh_2_J242 Mmp3:s net82:9 3.750000 $licon_diff  $A=0.1156 $VC=0 $SAVL=0 $SAVC=0 $SI_A=0.1156 $COVER_DIR=0 $LLX=0.000000 $LLY=0.000000 $URX=-0.115600 $URY=-4.000000 $lvl=5
Rh_2_J243 Mmp3@1:s net82:14 3.750000 $licon_diff  $A=0.1156 $VC=0 $SAVL=0 $SAVC=0 $SI_A=0.1156 $COVER_DIR=0 $LLX=0.000000 $LLY=0.000000 $URX=-0.115600 $URY=-4.000000 $lvl=5
RjJ244 net82:12 net82:17 152.000000 $mcon  $L=0.17 $W=0.17 $A=0.0289 $VC=0 $SAVL=0 $SAVC=0 $SI_A=0.0289 $COVER_DIR=0 $LLX=0.000000 $LLY=0.000000 $URX=0.170000 $URY=0.170000 $lvl=6
RjJ245 net82:7 net82:18 152.000000 $mcon  $L=0.17 $W=0.17 $A=0.0289 $VC=0 $SAVL=0 $SAVC=0 $SI_A=0.0289 $COVER_DIR=0 $LLX=0.000000 $LLY=0.000000 $URX=0.170000 $URY=0.170000 $lvl=6
RjJ246 net82:2 net82:19 152.000000 $mcon  $L=0.17 $W=0.17 $A=0.0289 $VC=0 $SAVL=0 $SAVC=0 $SI_A=0.0289 $COVER_DIR=0 $LLX=0.000000 $LLY=0.000000 $URX=0.170000 $URY=0.170000 $lvl=6
RmwJ247 Mmp2@1:d Mmp3:s 0.001000 $diff $W=1000000 $SI_W=1000000 $TYPE=1 $DIR=0
*
*|NET A1 1.99373e-15
*|P (A1 X 0 1.3750 1.8450) // $llx=1.3750 $lly=1.8450 $urx=1.3750 $ury=1.8450 $lvl=1
*|I (Mmp1:g Mmp1 g X 0 1.3350 3.0150) // $llx=1.3350 $lly=3.0150 $urx=1.3350 $ury=3.0150 $lvl=3
*|I (Mmp1@1:g Mmp1@1 g X 0 1.7650 3.0150) // $llx=1.7650 $lly=3.0150 $urx=1.7650 $ury=3.0150 $lvl=3
*|I (Mmn1:g Mmn1 g X 0 1.3350 0.7750) // $llx=1.3350 $lly=0.7750 $urx=1.3350 $ury=0.7750 $lvl=3
*|I (Mmn1@1:g Mmn1@1 g X 0 1.7650 0.7750) // $llx=1.7650 $lly=0.7750 $urx=1.7650 $ury=0.7750 $lvl=3
*|S (A1:15 1.7650 3.8950) // $llx=1.7650 $lly=3.8950 $urx=1.7650 $ury=3.8950 $lvl=3
*|S (A1:16 1.7650 1.9050) // $llx=1.7650 $lly=1.9050 $urx=1.7650 $ury=1.9050 $lvl=3
*|S (A1:17 1.5500 1.9050) // $llx=1.5500 $lly=1.9050 $urx=1.5500 $ury=1.9050 $lvl=3
*|S (A1:18 1.3350 1.9050) // $llx=1.3350 $lly=1.9050 $urx=1.3350 $ury=1.9050 $lvl=3
*|S (A1:19 1.3250 1.7400) // $llx=1.3250 $lly=1.7400 $urx=1.3250 $ury=1.7400 $lvl=3
*|S (A1:20 1.7750 1.7400) // $llx=1.7750 $lly=1.7400 $urx=1.7750 $ury=1.7400 $lvl=3
*|S (A1:21 1.7650 0.2450) // $llx=1.7650 $lly=0.2450 $urx=1.7650 $ury=0.2450 $lvl=3
*|S (A1:22 1.3250 2.0695) // $llx=1.3250 $lly=2.0695 $urx=1.3250 $ury=2.0695 $lvl=3
*|S (A1:23 1.3350 3.8950) // $llx=1.3350 $lly=3.8950 $urx=1.3350 $ury=3.8950 $lvl=3
*|S (A1:24 1.3350 0.2450) // $llx=1.3350 $lly=0.2450 $urx=1.3350 $ury=0.2450 $lvl=3
*|S (A1:25 1.9100 1.9050) // $llx=1.9100 $lly=1.9050 $urx=1.9100 $ury=1.9050 $lvl=2
*|S (A1:26 1.5500 1.9050) // $llx=1.5500 $lly=1.9050 $urx=1.5500 $ury=1.9050 $lvl=2
*|S (A1:27 1.3800 1.9050) // $llx=1.3800 $lly=1.9050 $urx=1.3800 $ury=1.9050 $lvl=2
*|S (A1:28 1.1900 1.9050) // $llx=1.1900 $lly=1.9050 $urx=1.1900 $ury=1.9050 $lvl=2
*|S (A1:29 1.3800 2.7500) // $llx=1.3800 $lly=2.7500 $urx=1.3800 $ury=2.7500 $lvl=1
*|S (A1:30 1.3800 1.9050) // $llx=1.3800 $lly=1.9050 $urx=1.3800 $ury=1.9050 $lvl=1
*|S (A1:31 1.3800 1.5100) // $llx=1.3800 $lly=1.5100 $urx=1.3800 $ury=1.5100 $lvl=1
CB1 Mmn1:g VSS! 3.00223e-18 $lvl=3
CB2 A1:29 VSS! 1.1072e-17 $lvl=1
CB3 A1:31 VSS! 9.28261e-18 $lvl=1
CB4 A1:15 VSS! 3.27723e-18 $lvl=3
CB5 A1:23 VSS! 3.00964e-18 $lvl=3
CB6 A1:21 VSS! 4.31612e-18 $lvl=3
CB7 A1:26 VSS! 1.16402e-17 $lvl=2
CB8 A1:28 VSS! 5.09073e-18 $lvl=2
CB9 A1:27 VSS! 6.60185e-18 $lvl=2
CB10 A1:17 VSS! 3.24432e-17 $lvl=3
CB11 A1 VSS! 9.80699e-18 $lvl=1
CB12 A1:29 net91:11 9.87232e-18 $lvl1=1 $lvl2=2
CB13 A1:26 net91:17 8.17064e-18 $lvl1=2 $lvl2=2
CB14 A1:29 net91:10 6.84621e-18 $lvl1=1 $lvl2=2
CB15 A1:17 net91:17 6.80761e-18 $lvl1=3 $lvl2=2
CB16 A1:17 net91:11 5.65786e-18 $lvl1=3 $lvl2=2
CB17 A1:29 net91:17 4.15272e-18 $lvl1=1 $lvl2=2
CB18 A1:28 net91:11 3.38496e-18 $lvl1=2 $lvl2=2
CB19 A1:27 net91:11 3.29999e-18 $lvl1=2 $lvl2=2
CB20 A1:29 net91:29 2.75489e-18 $lvl1=1 $lvl2=1
CB21 A1:29 net91:16 2.62945e-18 $lvl1=1 $lvl2=2
CB22 A1:26 net91:11 1.48533e-18 $lvl1=2 $lvl2=2
CB23 A1 net91:26 1.21265e-18 $lvl1=1 $lvl2=1
CB24 A1:17 Mmp1@1:d 1.19218e-18 $lvl1=3 $lvl2=4
CB25 A1 net91:27 1.02096e-18 $lvl1=1 $lvl2=1
CB26 A1:31 net91:26 8.77801e-19 $lvl1=1 $lvl2=1
CB27 A1 net91:17 8.64923e-19 $lvl1=1 $lvl2=2
CB28 A1:29 net91:24 8.01799e-19 $lvl1=1 $lvl2=1
CB29 A1 net91:11 7.66625e-19 $lvl1=1 $lvl2=2
CB30 A1:26 net91:26 7.32572e-19 $lvl1=2 $lvl2=1
CB31 A1:17 Mmp1:d 7.04362e-19 $lvl1=3 $lvl2=4
CB32 A1:27 net91:17 6.06202e-19 $lvl1=2 $lvl2=2
CB33 A1:31 net91:17 5.84189e-19 $lvl1=1 $lvl2=2
CB34 A1:15 net91:11 4.95794e-19 $lvl1=3 $lvl2=2
CB35 A1 net91:29 4.82605e-19 $lvl1=1 $lvl2=1
CB36 A1:23 net91:11 6.35655e-17 $lvl1=3 $lvl2=2
CB37 A1:23 net91:10 1.26772e-16 $lvl1=3 $lvl2=2
CB38 A1:15 net91:17 6.57438e-17 $lvl1=3 $lvl2=2
CB39 A1:15 net91:16 1.24087e-16 $lvl1=3 $lvl2=2
CB40 A1:23 net91:12 6.4907e-17 $lvl1=3 $lvl2=2
CB41 A1:29 net91:27 5.29719e-17 $lvl1=1 $lvl2=1
CB42 A1:15 net91:18 6.41355e-17 $lvl1=3 $lvl2=2
CB43 A1:29 net91:26 2.17939e-17 $lvl1=1 $lvl2=1
CB44 A1:31 net95:21 3.1501e-18 $lvl1=1 $lvl2=1
CB45 A1:31 net95:10 3.13226e-18 $lvl1=1 $lvl2=2
CB46 A1:17 net95:16 3.11137e-18 $lvl1=3 $lvl2=2
CB47 A1:26 net95:16 2.48111e-18 $lvl1=2 $lvl2=2
CB48 A1:17 net95:10 1.68953e-18 $lvl1=3 $lvl2=2
CB49 A1:31 net95:16 1.30298e-18 $lvl1=1 $lvl2=2
CB50 A1:31 net95:23 1.07629e-18 $lvl1=1 $lvl2=1
CB51 Mmn1:g net95:16 1.03107e-18 $lvl1=3 $lvl2=2
CB52 A1:21 net95:10 8.51552e-19 $lvl1=3 $lvl2=2
CB53 A1:26 net95:10 7.51988e-19 $lvl1=2 $lvl2=2
CB54 A1:31 net95:19 6.84898e-19 $lvl1=1 $lvl2=1
CB55 Mmn1:g net95:10 1.2741e-16 $lvl1=3 $lvl2=2
CB56 A1:21 net95:16 1.27212e-16 $lvl1=3 $lvl2=2
CB57 A1:21 VSS!:10 8.51458e-18 $lvl1=3 $lvl2=2
CB58 Mmn1:g VSS!:10 7.97876e-18 $lvl1=3 $lvl2=2
CB59 A1:31 VSS!:23 1.36149e-18 $lvl1=1 $lvl2=1
CB60 A1:15 VDD!:6 7.909e-18 $lvl1=3 $lvl2=2
CB61 A1:26 VDD!:9 7.49356e-18 $lvl1=2 $lvl2=2
CB62 A1:23 VDD!:6 7.30624e-18 $lvl1=3 $lvl2=2
CB63 A1:29 VDD! 6.9356e-18 $lvl1=1 $lvl2=1
CB64 A1:17 VDD! 5.43963e-18 $lvl1=3 $lvl2=1
CB65 A1:31 VDD! 4.53368e-18 $lvl1=1 $lvl2=1
CB66 A1:27 VDD!:9 3.90184e-18 $lvl1=2 $lvl2=2
CB67 A1:29 VDD!:3 3.80261e-18 $lvl1=1 $lvl2=2
CB68 A1 VDD! 2.8183e-18 $lvl1=1 $lvl2=1
CB69 A1:29 VDD!:14 2.63838e-18 $lvl1=1 $lvl2=1
CB70 A1:23 VDD!:4 1.68453e-18 $lvl1=3 $lvl2=2
CB71 A1:17 Mmp1:s 1.67438e-18 $lvl1=3 $lvl2=4
CB72 A1:17 VDD!:3 1.3631e-18 $lvl1=3 $lvl2=2
CB73 A1:23 VDD!:9 2.46825e-16 $lvl1=3 $lvl2=2
CB74 A1:17 VDD!:9 1.04715e-17 $lvl1=3 $lvl2=2
CB75 A1:29 VDD!:9 1.68994e-17 $lvl1=1 $lvl2=2
CB76 A1:15 VDD!:9 2.50146e-16 $lvl1=3 $lvl2=2
CB77 A1:17 Y:1 3.42774e-18 $lvl1=3 $lvl2=2
CB78 A1 Y:28 2.34531e-18 $lvl1=1 $lvl2=1
CB79 A1:31 Y:1 2.23381e-18 $lvl1=1 $lvl2=2
CB80 A1:29 Y:28 1.88492e-18 $lvl1=1 $lvl2=1
CB81 A1:26 Y:28 1.87726e-18 $lvl1=2 $lvl2=1
CB82 A1:26 Y:1 1.80431e-18 $lvl1=2 $lvl2=2
CB83 A1:31 Y:2 1.72616e-18 $lvl1=1 $lvl2=2
CB84 A1:31 Y:25 1.46814e-18 $lvl1=1 $lvl2=1
CB85 A1:17 Y:28 8.59252e-19 $lvl1=3 $lvl2=1
CB86 A1:29 Y:25 6.86358e-19 $lvl1=1 $lvl2=1
CB87 A1:21 Y:1 1.28528e-16 $lvl1=3 $lvl2=2
CB88 A1:31 Y:28 1.62824e-17 $lvl1=1 $lvl2=1
CB89 Mmn1:g Y:1 1.25194e-16 $lvl1=3 $lvl2=2
CB90 A1:29 B0:31 4.14966e-18 $lvl1=1 $lvl2=1
CB91 A1:26 B0:31 2.11539e-18 $lvl1=2 $lvl2=1
CB92 A1 B0:31 1.44102e-18 $lvl1=1 $lvl2=1
CB93 A1:31 B0:31 1.38585e-18 $lvl1=1 $lvl2=1
CB94 A1:31 B0:33 1.38263e-18 $lvl1=1 $lvl2=1
CB95 A1:17 B0:17 1.30922e-18 $lvl1=3 $lvl2=3
CB96 A1:29 B0:33 1.24893e-18 $lvl1=1 $lvl2=1
CB97 A1:26 B0:33 1.23792e-18 $lvl1=2 $lvl2=1
CB98 A1:26 B0:17 8.91445e-19 $lvl1=2 $lvl2=3
ReB21 A1:29 A1:30 0.406250 $metal1  $L=0.845 $W=0.260000 $SI_W=0.26 $TYPE=10 $DIR=1 $LLX=1.250000 $LLY=1.905000 $URX=1.510000 $URY=2.750000 $lvl=1
ReB22 A1:30 A1 0.028846 $metal1  $L=0.06 $W=0.260000 $SI_W=0.26 $TYPE=10 $DIR=1 $LLX=1.250000 $LLY=1.845000 $URX=1.510000 $URY=1.905000 $lvl=1
ReB23 A1 A1:31 0.161058 $metal1  $L=0.335 $W=0.260000 $SI_W=0.26 $TYPE=10 $DIR=1 $LLX=1.250000 $LLY=1.510000 $URX=1.510000 $URY=1.845000 $lvl=1
RfB24 A1:25 A1:26 27.105885 $li  $L=0.36 $W=0.170000 $SI_W=0.17 $TYPE=10 $DIR=0 $LLX=1.550000 $LLY=1.820000 $URX=1.910000 $URY=1.990000 $lvl=2
RfB25 A1:26 A1:27 12.800000 $li  $L=0.17 $W=0.170000 $SI_W=0.17 $TYPE=10 $DIR=0 $LLX=1.380000 $LLY=1.820000 $URX=1.550000 $URY=1.990000 $lvl=2
RfB26 A1:27 A1:28 14.305883 $li  $L=0.19 $W=0.170000 $SI_W=0.17 $TYPE=10 $DIR=0 $LLX=1.190000 $LLY=1.820000 $URX=1.380000 $URY=1.990000 $lvl=2
RgB27 A1:15 Mmp1@1:g 282.773346 $poly  $L=0.88 $W=0.150000 $SI_W=0.15 $TYPE=10 $DIR=1 $LLX=1.690000 $LLY=3.015000 $URX=1.840000 $URY=3.895000 $lvl=3
RgB28 Mmp1@1:g A1:16 351.158844 $poly  $L=1.10975 $W=0.150000 $SI_W=0.15 $TYPE=10 $DIR=1 $LLX=1.690000 $LLY=1.905000 $URX=1.840000 $URY=3.015000 $lvl=3
RgB29 A1:16 A1:17 31.439547 $poly  $L=0.21525 $W=0.330000 $SI_W=0.33 $TYPE=10 $DIR=0 $LLX=1.550000 $LLY=1.740000 $URX=1.765000 $URY=2.070000 $lvl=3
RgB30 A1:17 A1:18 31.366514 $poly  $L=0.21475 $W=0.330000 $SI_W=0.33 $TYPE=10 $DIR=0 $LLX=1.335000 $LLY=1.740000 $URX=1.550000 $URY=2.070000 $lvl=3
RgB31 A1:18 A1:19 46.784668 $poly  $L=0.16475 $W=0.170000 $SI_W=0.17 $TYPE=10 $DIR=1 $LLX=1.240000 $LLY=1.740000 $URX=1.410000 $URY=1.905000 $lvl=3
RgB32 A1:19 Mmn1:g 310.157562 $poly  $L=0.965 $W=0.150000 $SI_W=0.15 $TYPE=10 $DIR=1 $LLX=1.260000 $LLY=0.775000 $URX=1.410000 $URY=1.740000 $lvl=3
RgB33 A1:16 A1:20 46.784668 $poly  $L=0.16475 $W=0.170000 $SI_W=0.17 $TYPE=10 $DIR=1 $LLX=1.690000 $LLY=1.740000 $URX=1.860000 $URY=1.905000 $lvl=3
RgB34 A1:20 Mmn1@1:g 310.157562 $poly  $L=0.965 $W=0.150000 $SI_W=0.15 $TYPE=10 $DIR=1 $LLX=1.690000 $LLY=0.775000 $URX=1.840000 $URY=1.740000 $lvl=3
RgB35 Mmn1@1:g A1:21 170.306671 $poly  $L=0.53 $W=0.150000 $SI_W=0.15 $TYPE=10 $DIR=1 $LLX=1.690000 $LLY=0.245000 $URX=1.840000 $URY=0.775000 $lvl=3
RgB36 A1:18 A1:22 46.642902 $poly  $L=0.16425 $W=0.170000 $SI_W=0.17 $TYPE=10 $DIR=1 $LLX=1.240000 $LLY=1.905500 $URX=1.410000 $URY=2.069500 $lvl=3
RgB37 A1:22 Mmp1:g 303.730896 $poly  $L=0.945 $W=0.150000 $SI_W=0.15 $TYPE=10 $DIR=1 $LLX=1.260000 $LLY=2.069500 $URX=1.410000 $URY=3.014500 $lvl=3
RgB38 Mmp1:g A1:23 282.773346 $poly  $L=0.88 $W=0.150000 $SI_W=0.15 $TYPE=10 $DIR=1 $LLX=1.260000 $LLY=3.015000 $URX=1.410000 $URY=3.895000 $lvl=3
RgB39 Mmn1:g A1:24 170.306671 $poly  $L=0.53 $W=0.150000 $SI_W=0.15 $TYPE=10 $DIR=1 $LLX=1.260000 $LLY=0.245000 $URX=1.410000 $URY=0.775000 $lvl=3
RjB40 A1:27 A1:30 152.000000 $mcon  $L=0.17 $W=0.17 $A=0.0289 $VC=0 $SAVL=0 $SAVC=0 $SI_A=0.0289 $COVER_DIR=0 $LLX=0.000000 $LLY=0.000000 $URX=0.170000 $URY=0.170000 $lvl=6
RiB41 A1:17 A1:26 7.500000 $licon  $A=0.0578 $VC=0 $SAVL=0 $SAVC=0 $SI_A=0.0578 $COVER_DIR=0 $LLX=0.000000 $LLY=0.000000 $URX=-0.057800 $URY=-2.000000 $lvl=7
*
*|NET VSS! 3.17784e-15
*|P (VSS! X 0 2.4150 0.0050) // $llx=2.4150 $lly=0.0050 $urx=2.4150 $ury=0.0050 $lvl=1
*|I (Mmn3:s Mmn3 s X 0 3.4995 0.7750) // $llx=3.4995 $lly=0.7750 $urx=3.4995 $ury=0.7750 $lvl=4
*|I (Mmn3:b Mmn3 b X 0 3.5750 0.7750) // $llx=3.5750 $lly=0.7750 $urx=3.5750 $ury=0.7750 $lvl=8
*|I (Mmn3@1:s Mmn3@1 s X 0 4.0805 0.7750) // $llx=4.0805 $lly=0.7750 $urx=4.0805 $ury=0.7750 $lvl=4
*|I (Mmn3@1:b Mmn3@1 b X 0 4.0050 0.7750) // $llx=4.0050 $lly=0.7750 $urx=4.0050 $ury=0.7750 $lvl=8
*|I (Mmn1:b Mmn1 b X 0 1.3350 0.7750) // $llx=1.3350 $lly=0.7750 $urx=1.3350 $ury=0.7750 $lvl=8
*|I (Mmn1@1:b Mmn1@1 b X 0 1.7650 0.7750) // $llx=1.7650 $lly=0.7750 $urx=1.7650 $ury=0.7750 $lvl=8
*|I (Mmn2:s Mmn2 s X 0 2.6395 0.7750) // $llx=2.6395 $lly=0.7750 $urx=2.6395 $ury=0.7750 $lvl=4
*|I (Mmn2:b Mmn2 b X 0 2.7150 0.7750) // $llx=2.7150 $lly=0.7750 $urx=2.7150 $ury=0.7750 $lvl=8
*|I (Mmn2@1:s Mmn2@1 s X 0 3.2205 0.7750) // $llx=3.2205 $lly=0.7750 $urx=3.2205 $ury=0.7750 $lvl=4
*|I (Mmn2@1:b Mmn2@1 b X 0 3.1450 0.7750) // $llx=3.1450 $lly=0.7750 $urx=3.1450 $ury=0.7750 $lvl=8
*|I (Mmn0:s Mmn0 s X 0 0.5505 0.7750) // $llx=0.5505 $lly=0.7750 $urx=0.5505 $ury=0.7750 $lvl=4
*|I (Mmn0:b Mmn0 b X 0 0.4750 0.7750) // $llx=0.4750 $lly=0.7750 $urx=0.4750 $ury=0.7750 $lvl=8
*|I (Mmn0@1:s Mmn0@1 s X 0 0.8295 0.7750) // $llx=0.8295 $lly=0.7750 $urx=0.8295 $ury=0.7750 $lvl=4
*|I (Mmn0@1:b Mmn0@1 b X 0 0.9050 0.7750) // $llx=0.9050 $lly=0.7750 $urx=0.9050 $ury=0.7750 $lvl=8
*|S (VSS!:1 4.2200 1.1550) // $llx=4.2200 $lly=1.1550 $urx=4.2200 $ury=1.1550 $lvl=2
*|S (VSS!:3 4.2200 0.7750) // $llx=4.2200 $lly=0.7750 $urx=4.2200 $ury=0.7750 $lvl=2
*|S (VSS!:4 4.2200 0.0000) // $llx=4.2200 $lly=0.0000 $urx=4.2200 $ury=0.0000 $lvl=2
*|S (VSS!:5 3.3600 0.0000) // $llx=3.3600 $lly=0.0000 $urx=3.3600 $ury=0.0000 $lvl=2
*|S (VSS!:6 2.5000 0.0000) // $llx=2.5000 $lly=0.0000 $urx=2.5000 $ury=0.0000 $lvl=2
*|S (VSS!:7 2.3000 0.0000) // $llx=2.3000 $lly=0.0000 $urx=2.3000 $ury=0.0000 $lvl=2
*|S (VSS!:8 2.3000 0.0000) // $llx=2.3000 $lly=0.0000 $urx=2.3000 $ury=0.0000 $lvl=4
*|S (VSS!:10 0.6900 0.0000) // $llx=0.6900 $lly=0.0000 $urx=0.6900 $ury=0.0000 $lvl=2
*|S (VSS!:11 0.0000 0.0000) // $llx=0.0000 $lly=0.0000 $urx=0.0000 $ury=0.0000 $lvl=2
*|S (VSS!:12 4.5995 0.0000) // $llx=4.5995 $lly=0.0000 $urx=4.5995 $ury=0.0000 $lvl=2
*|S (VSS!:14 3.3600 0.7750) // $llx=3.3600 $lly=0.7750 $urx=3.3600 $ury=0.7750 $lvl=2
*|S (VSS!:15 3.3600 1.1550) // $llx=3.3600 $lly=1.1550 $urx=3.3600 $ury=1.1550 $lvl=2
*|S (VSS!:17 2.5000 0.7750) // $llx=2.5000 $lly=0.7750 $urx=2.5000 $ury=0.7750 $lvl=2
*|S (VSS!:18 2.5000 1.1550) // $llx=2.5000 $lly=1.1550 $urx=2.5000 $ury=1.1550 $lvl=2
*|S (VSS!:20 0.6900 0.7750) // $llx=0.6900 $lly=0.7750 $urx=0.6900 $ury=0.7750 $lvl=2
*|S (VSS!:21 0.6900 1.1550) // $llx=0.6900 $lly=1.1550 $urx=0.6900 $ury=1.1550 $lvl=2
*|S (VSS!:22 4.6000 0.0000) // $llx=4.6000 $lly=0.0000 $urx=4.6000 $ury=0.0000 $lvl=1
*|S (VSS!:23 2.3000 0.0000) // $llx=2.3000 $lly=0.0000 $urx=2.3000 $ury=0.0000 $lvl=1
*|S (VSS!:24 0.0000 0.0000) // $llx=0.0000 $lly=0.0000 $urx=0.0000 $ury=0.0000 $lvl=1
ReG142 VSS!:22 VSS! 0.682813 $metal1  $L=2.185 $W=0.400000 $SI_W=0.4 $TYPE=10 $DIR=0 $LLX=2.415000 $LLY=-0.199500 $URX=4.600000 $URY=0.200000 $lvl=1
ReG143 VSS! VSS!:23 0.035937 $metal1  $L=0.115 $W=0.400000 $SI_W=0.4 $TYPE=10 $DIR=0 $LLX=2.300000 $LLY=-0.199500 $URX=2.415000 $URY=0.200000 $lvl=1
ReG144 VSS!:23 VSS!:24 0.718750 $metal1  $L=2.3 $W=0.400000 $SI_W=0.4 $TYPE=10 $DIR=0 $LLX=0.000000 $LLY=-0.199500 $URX=2.300000 $URY=0.200000 $lvl=1
RfG145 VSS!:1 VSS!:3 28.611765 $li  $L=0.38 $W=0.170000 $SI_W=0.17 $TYPE=10 $DIR=1 $LLX=4.135000 $LLY=0.775000 $URX=4.305000 $URY=1.155000 $lvl=2
RfG146 VSS!:3 VSS!:4 55.328377 $li  $L=0.77475 $W=0.170000 $SI_W=0.17 $TYPE=10 $DIR=1 $LLX=4.135000 $LLY=0.000000 $URX=4.305000 $URY=0.775000 $lvl=2
RfG147 VSS!:4 VSS!:5 44.031998 $li  $L=0.86 $W=0.250000 $SI_W=0.25 $TYPE=10 $DIR=0 $LLX=3.360000 $LLY=-0.124500 $URX=4.220000 $URY=0.125000 $lvl=2
RfG148 VSS!:5 VSS!:6 44.031998 $li  $L=0.86 $W=0.250000 $SI_W=0.25 $TYPE=10 $DIR=0 $LLX=2.500000 $LLY=-0.124500 $URX=3.360000 $URY=0.125000 $lvl=2
RfG149 VSS!:6 VSS!:7 10.252800 $li  $L=0.20025 $W=0.250000 $SI_W=0.25 $TYPE=10 $DIR=0 $LLX=2.300000 $LLY=-0.124500 $URX=2.500000 $URY=0.125000 $lvl=2
RfG150 VSS!:7 VSS!:10 82.419205 $li  $L=1.60975 $W=0.250000 $SI_W=0.25 $TYPE=10 $DIR=0 $LLX=0.690000 $LLY=-0.124500 $URX=2.300000 $URY=0.125000 $lvl=2
RfG151 VSS!:10 VSS!:11 35.340801 $li  $L=0.69025 $W=0.250000 $SI_W=0.25 $TYPE=10 $DIR=0 $LLX=0.000000 $LLY=-0.124500 $URX=0.690000 $URY=0.125000 $lvl=2
RfG152 VSS!:4 VSS!:12 19.417599 $li  $L=0.37925 $W=0.250000 $SI_W=0.25 $TYPE=10 $DIR=0 $LLX=4.220000 $LLY=-0.124500 $URX=4.599000 $URY=0.125000 $lvl=2
RfG153 VSS!:5 VSS!:14 55.328377 $li  $L=0.77475 $W=0.170000 $SI_W=0.17 $TYPE=10 $DIR=1 $LLX=3.275000 $LLY=0.000000 $URX=3.445000 $URY=0.775000 $lvl=2
RfG154 VSS!:14 VSS!:15 28.611765 $li  $L=0.38 $W=0.170000 $SI_W=0.17 $TYPE=10 $DIR=1 $LLX=3.275000 $LLY=0.775000 $URX=3.445000 $URY=1.155000 $lvl=2
RfG155 VSS!:6 VSS!:17 55.328377 $li  $L=0.77475 $W=0.170000 $SI_W=0.17 $TYPE=10 $DIR=1 $LLX=2.415000 $LLY=0.000000 $URX=2.585000 $URY=0.775000 $lvl=2
RfG156 VSS!:17 VSS!:18 28.611765 $li  $L=0.38 $W=0.170000 $SI_W=0.17 $TYPE=10 $DIR=1 $LLX=2.415000 $LLY=0.775000 $URX=2.585000 $URY=1.155000 $lvl=2
RfG157 VSS!:10 VSS!:20 55.328377 $li  $L=0.77475 $W=0.170000 $SI_W=0.17 $TYPE=10 $DIR=1 $LLX=0.605000 $LLY=0.000000 $URX=0.775000 $URY=0.775000 $lvl=2
RfG158 VSS!:20 VSS!:21 28.611765 $li  $L=0.38 $W=0.170000 $SI_W=0.17 $TYPE=10 $DIR=1 $LLX=0.605000 $LLY=0.775000 $URX=0.775000 $URY=1.155000 $lvl=2
RhG159 Mmn3@1:s VSS!:3 7.500000 $licon_diff  $A=0.0578 $VC=0 $SAVL=0 $SAVC=0 $SI_A=0.0578 $COVER_DIR=0 $LLX=0.000000 $LLY=0.000000 $URX=-0.057800 $URY=-2.000000 $lvl=5
RhG160 Mmn3:s VSS!:14 7.500000 $licon_diff  $A=0.0578 $VC=0 $SAVL=0 $SAVC=0 $SI_A=0.0578 $COVER_DIR=0 $LLX=0.000000 $LLY=0.000000 $URX=-0.057800 $URY=-2.000000 $lvl=5
RhG161 Mmn2:s VSS!:17 7.500000 $licon_diff  $A=0.0578 $VC=0 $SAVL=0 $SAVC=0 $SI_A=0.0578 $COVER_DIR=0 $LLX=0.000000 $LLY=0.000000 $URX=-0.057800 $URY=-2.000000 $lvl=5
RhG162 Mmn0:s VSS!:20 7.500000 $licon_diff  $A=0.0578 $VC=0 $SAVL=0 $SAVC=0 $SI_A=0.0578 $COVER_DIR=0 $LLX=0.000000 $LLY=0.000000 $URX=-0.057800 $URY=-2.000000 $lvl=5
Rh_3_G163 VSS!:8 VSS!:7 1.666667 $licon_diff  $A=0.2601 $VC=0 $SAVL=0 $SAVC=0 $SI_A=0.2601 $COVER_DIR=0 $LLX=0.000000 $LLY=0.000000 $URX=-0.260100 $URY=-9.000000 $lvl=5
RjG164 VSS!:7 VSS!:23 16.888889 $mcon  $A=0.2601 $VC=0 $SAVL=0 $SAVC=0 $SI_A=0.2601 $COVER_DIR=0 $LLX=0.000000 $LLY=0.000000 $URX=-0.260100 $URY=-9.000000 $lvl=6
RmwG165 Mmn3:b VSS! 0.001000 $FOX $W=1000000 $SI_W=1000000 $TYPE=1 $DIR=0
RmwG166 Mmn3@1:b VSS! 0.001000 $FOX $W=1000000 $SI_W=1000000 $TYPE=1 $DIR=0
RmwG167 Mmn1:b VSS! 0.001000 $FOX $W=1000000 $SI_W=1000000 $TYPE=1 $DIR=0
RmwG168 Mmn1@1:b VSS! 0.001000 $FOX $W=1000000 $SI_W=1000000 $TYPE=1 $DIR=0
RmwG169 Mmn2:b VSS! 0.001000 $FOX $W=1000000 $SI_W=1000000 $TYPE=1 $DIR=0
RmwG170 Mmn2@1:s Mmn3:s 0.001000 $diff $W=1000000 $SI_W=1000000 $TYPE=1 $DIR=0
RmwG171 Mmn2@1:b VSS! 0.001000 $FOX $W=1000000 $SI_W=1000000 $TYPE=1 $DIR=0
RmwG172 Mmn0:b VSS! 0.001000 $FOX $W=1000000 $SI_W=1000000 $TYPE=1 $DIR=0
RmwG173 Mmn0@1:s Mmn0:s 0.001000 $diff $W=1000000 $SI_W=1000000 $TYPE=1 $DIR=0
RmwG174 Mmn0@1:b VSS! 0.001000 $FOX $W=1000000 $SI_W=1000000 $TYPE=1 $DIR=0
*
*|NET VDD! 3.05577e-15
*|P (VDD! X 0 2.4150 4.1450) // $llx=2.4150 $lly=4.1450 $urx=2.4150 $ury=4.1450 $lvl=1
*|I (Mmp3:b Mmp3 b X 0 3.5750 3.0150) // $llx=3.5750 $lly=3.0150 $urx=3.5750 $ury=3.0150 $lvl=8
*|I (Mmp3@1:b Mmp3@1 b X 0 4.0050 3.0150) // $llx=4.0050 $lly=3.0150 $urx=4.0050 $ury=3.0150 $lvl=8
*|I (Mmp1:s Mmp1 s X 0 1.4105 3.0150) // $llx=1.4105 $lly=3.0150 $urx=1.4105 $ury=3.0150 $lvl=4
*|I (Mmp1:b Mmp1 b X 0 1.3350 3.0150) // $llx=1.3350 $lly=3.0150 $urx=1.3350 $ury=3.0150 $lvl=8
*|I (Mmp1@1:s Mmp1@1 s X 0 1.6895 3.0150) // $llx=1.6895 $lly=3.0150 $urx=1.6895 $ury=3.0150 $lvl=4
*|I (Mmp1@1:b Mmp1@1 b X 0 1.7650 3.0150) // $llx=1.7650 $lly=3.0150 $urx=1.7650 $ury=3.0150 $lvl=8
*|I (Mmp2:b Mmp2 b X 0 2.7150 3.0150) // $llx=2.7150 $lly=3.0150 $urx=2.7150 $ury=3.0150 $lvl=8
*|I (Mmp2@1:b Mmp2@1 b X 0 3.1450 3.0150) // $llx=3.1450 $lly=3.0150 $urx=3.1450 $ury=3.0150 $lvl=8
*|I (Mmp0:s Mmp0 s X 0 0.5505 3.0150) // $llx=0.5505 $lly=3.0150 $urx=0.5505 $ury=3.0150 $lvl=4
*|I (Mmp0:b Mmp0 b X 0 0.4750 3.0150) // $llx=0.4750 $lly=3.0150 $urx=0.4750 $ury=3.0150 $lvl=8
*|I (Mmp0@1:s Mmp0@1 s X 0 0.8295 3.0150) // $llx=0.8295 $lly=3.0150 $urx=0.8295 $ury=3.0150 $lvl=4
*|I (Mmp0@1:b Mmp0@1 b X 0 0.9050 3.0150) // $llx=0.9050 $lly=3.0150 $urx=0.9050 $ury=3.0150 $lvl=8
*|S (VDD!:1 0.6900 2.2850) // $llx=0.6900 $lly=2.2850 $urx=0.6900 $ury=2.2850 $lvl=2
*|S (VDD!:3 0.6900 3.0150) // $llx=0.6900 $lly=3.0150 $urx=0.6900 $ury=3.0150 $lvl=2
*|S (VDD!:4 0.6900 4.1400) // $llx=0.6900 $lly=4.1400 $urx=0.6900 $ury=4.1400 $lvl=2
*|S (VDD!:5 0.0000 4.1400) // $llx=0.0000 $lly=4.1400 $urx=0.0000 $ury=4.1400 $lvl=2
*|S (VDD!:6 1.5500 4.1400) // $llx=1.5500 $lly=4.1400 $urx=1.5500 $ury=4.1400 $lvl=2
*|S (VDD!:8 1.5500 3.0150) // $llx=1.5500 $lly=3.0150 $urx=1.5500 $ury=3.0150 $lvl=2
*|S (VDD!:9 1.5500 2.2850) // $llx=1.5500 $lly=2.2850 $urx=1.5500 $ury=2.2850 $lvl=2
*|S (VDD!:10 2.3000 4.1400) // $llx=2.3000 $lly=4.1400 $urx=2.3000 $ury=4.1400 $lvl=2
*|S (VDD!:11 2.3000 4.1400) // $llx=2.3000 $lly=4.1400 $urx=2.3000 $ury=4.1400 $lvl=4
*|S (VDD!:13 4.6000 4.1400) // $llx=4.6000 $lly=4.1400 $urx=4.6000 $ury=4.1400 $lvl=1
*|S (VDD!:14 2.3000 4.1400) // $llx=2.3000 $lly=4.1400 $urx=2.3000 $ury=4.1400 $lvl=1
*|S (VDD!:15 0.0000 4.1400) // $llx=0.0000 $lly=4.1400 $urx=0.0000 $ury=4.1400 $lvl=1
CF1 Mmp0:s VSS! 3.33618e-18 $lvl=4
CF2 Mmp1:s VSS! 1.22087e-18 $lvl=4
CF3 VDD!:14 VSS! 2.47653e-17 $lvl=1
CF4 VDD!:13 VSS! 9.48835e-18 $lvl=1
CF5 VDD!:15 VSS! 8.71092e-18 $lvl=1
CF6 VDD!:3 VSS! 8.59921e-18 $lvl=2
CF7 VDD!:9 VSS! 8.50608e-18 $lvl=2
CF8 VDD!:6 VSS! 7.7552e-18 $lvl=2
CF9 VDD!:4 VSS! 3.71577e-18 $lvl=2
CF10 VDD!:5 VSS! 2.8075e-18 $lvl=2
CF11 VDD!:11 VSS! 3.63521e-18 $lvl=4
CF12 VDD!:10 VSS! 4.4156e-18 $lvl=2
CF13 VDD! VSS! 1.36184e-17 $lvl=1
CF14 VDD! net82 7.6664e-18 $lvl1=1 $lvl2=2
CF15 VDD! net82:18 6.95778e-18 $lvl1=1 $lvl2=1
CF16 VDD!:14 net82 6.24339e-18 $lvl1=1 $lvl2=2
CF17 VDD!:13 net82:11 6.00312e-18 $lvl1=1 $lvl2=2
CF18 VDD! net82:20 5.21187e-18 $lvl1=1 $lvl2=1
CF19 VDD! net82:15 5.16652e-18 $lvl1=1 $lvl2=2
CF20 VDD!:14 net82:9 4.85856e-18 $lvl1=1 $lvl2=2
CF21 VDD!:14 net82:11 4.52552e-18 $lvl1=1 $lvl2=2
CF22 VDD!:11 net82:11 3.76918e-18 $lvl1=4 $lvl2=2
CF23 VDD!:14 net82:7 2.88381e-18 $lvl1=1 $lvl2=2
CF24 VDD!:6 Mmp2:d 2.81762e-18 $lvl1=2 $lvl2=4
CF25 VDD!:6 net82:16 2.79076e-18 $lvl1=2 $lvl2=1
CF26 VDD!:6 Mmp3@1:s 2.6062e-18 $lvl1=2 $lvl2=4
CF27 VDD!:10 net82 2.22774e-18 $lvl1=2 $lvl2=2
CF28 VDD!:6 net82:20 2.13815e-18 $lvl1=2 $lvl2=1
CF29 VDD!:14 net82:2 2.07291e-18 $lvl1=1 $lvl2=2
CF30 VDD!:10 net82:9 1.84429e-18 $lvl1=2 $lvl2=2
CF31 VDD!:10 net82:11 1.69797e-18 $lvl1=2 $lvl2=2
CF32 VDD!:6 net82:18 1.608e-18 $lvl1=2 $lvl2=1
CF33 VDD!:10 net82:18 1.4343e-18 $lvl1=2 $lvl2=1
CF34 VDD! net82:12 1.36591e-18 $lvl1=1 $lvl2=2
CF35 VDD!:10 net82:20 1.26788e-18 $lvl1=2 $lvl2=1
CF36 VDD!:11 net82 1.22857e-18 $lvl1=4 $lvl2=2
CF37 VDD!:14 net82:12 1.14316e-18 $lvl1=1 $lvl2=2
CF38 VDD!:6 Mmp3:s 1.13225e-18 $lvl1=2 $lvl2=4
CF39 VDD!:13 net82:18 9.633e-19 $lvl1=1 $lvl2=1
CF40 VDD! net82:9 9.03561e-19 $lvl1=1 $lvl2=2
CF41 VDD! net82:11 5.50663e-17 $lvl1=1 $lvl2=2
CF42 VDD!:13 net82:16 1.23463e-17 $lvl1=1 $lvl2=1
CF43 VDD!:6 net82 2.5297e-17 $lvl1=2 $lvl2=2
CF44 VDD!:6 net82:9 2.20413e-17 $lvl1=2 $lvl2=2
CF45 VDD!:14 net82:18 3.81398e-17 $lvl1=1 $lvl2=1
CF46 VDD!:14 net82:16 2.33596e-17 $lvl1=1 $lvl2=1
CF47 VDD!:14 net82:20 3.45571e-17 $lvl1=1 $lvl2=1
CF48 VDD!:6 net82:11 2.65478e-17 $lvl1=2 $lvl2=2
CF49 VDD! net82:16 1.93623e-17 $lvl1=1 $lvl2=1
CF50 VDD!:14 net91:29 9.72396e-18 $lvl1=1 $lvl2=1
CF51 VDD! net91:26 7.5427e-18 $lvl1=1 $lvl2=1
CF52 VDD!:15 net91:29 6.66614e-18 $lvl1=1 $lvl2=1
CF53 VDD!:14 net91:18 6.50911e-18 $lvl1=1 $lvl2=2
CF54 VDD!:14 net91:12 6.22325e-18 $lvl1=1 $lvl2=2
CF55 VDD! net91:10 5.48403e-18 $lvl1=1 $lvl2=2
CF56 VDD!:14 net91:19 5.45672e-18 $lvl1=1 $lvl2=2
CF57 VDD!:15 net91:6 5.02264e-18 $lvl1=1 $lvl2=2
CF58 VDD! net91:16 3.76179e-18 $lvl1=1 $lvl2=2
CF59 VDD! net91:11 3.75028e-18 $lvl1=1 $lvl2=2
CF60 VDD!:14 net91:6 3.72646e-18 $lvl1=1 $lvl2=2
CF61 VDD!:14 net91:24 3.57421e-18 $lvl1=1 $lvl2=1
CF62 VDD!:6 Mmp1@1:d 3.46474e-18 $lvl1=2 $lvl2=4
CF63 VDD! net91:12 3.44098e-18 $lvl1=1 $lvl2=2
CF64 VDD! net91:24 3.37754e-18 $lvl1=1 $lvl2=1
CF65 VDD! net91:17 3.00527e-18 $lvl1=1 $lvl2=2
CF66 VDD! net91:18 2.98784e-18 $lvl1=1 $lvl2=2
CF67 VDD! net91 2.8051e-18 $lvl1=1 $lvl2=2
CF68 VDD!:11 net91:6 2.70595e-18 $lvl1=4 $lvl2=2
CF69 VDD!:10 net91:18 2.31994e-18 $lvl1=2 $lvl2=2
CF70 VDD!:15 net91:27 2.05172e-18 $lvl1=1 $lvl2=1
CF71 VDD!:10 net91:19 2.04042e-18 $lvl1=2 $lvl2=2
CF72 VDD!:14 net91:7 2.01988e-18 $lvl1=1 $lvl2=2
CF73 VDD!:10 net91:12 1.89575e-18 $lvl1=2 $lvl2=2
CF74 VDD!:3 Mmp1:d 1.81544e-18 $lvl1=2 $lvl2=4
CF75 VDD!:4 Mmp0:d 1.76673e-18 $lvl1=2 $lvl2=4