*
*|DSPF 1.5
*
*|DATE "Wed Jan  8 23:26:00 2025"
*|VENDOR "Cadence Design Systems"
*|PROGRAM "Cadence Quantus Extraction"
*|VERSION "22.1.0-p089 Linux 64 bit - (Thu Jan 19 11:47:08 PST 2023)"
*|DESIGN AOI221X2_HS
*|DIVIDER /
*|DELIMITER :
*|DeviceFingerDelim "@"
*|BUSBIT []
*|GLOBAL_TEMPERATURE 25
*|OPERATING_TEMPERATURE 25

** *VIA_COVERAGE_CODES
** *index FF FS FP FU SF SS SP SU PF PS PP PU UF US UP UU X_by_Y
** * "FF" stands for Full landing and Full coverage
** *0 0 0 0 0 0 0 0 0 0 0 0 0 0 0 0 0
** *1 0 0 0 0 0 0 0 0 0 0 0 0 0 0 0 1 1x1
** *2 0 0 0 0 0 0 0 0 0 0 0 0 0 0 1 0 1x1
** *3 0 0 0 0 0 0 0 0 0 0 0 0 0 1 0 0 1x1
** *4 0 0 0 0 0 0 0 0 0 0 0 0 1 0 0 0 1x1
** *5 0 0 0 0 0 0 0 0 0 0 0 1 0 0 0 0 1x1
** *6 0 0 0 0 0 0 0 0 0 0 1 0 0 0 0 0 1x1
** *7 0 0 0 0 0 0 0 0 0 1 0 0 0 0 0 0 1x1
** *8 0 0 0 0 0 0 0 0 1 0 0 0 0 0 0 0 1x1
** *9 0 0 0 0 0 0 0 1 0 0 0 0 0 0 0 0 1x1
** *10 0 0 0 0 0 0 1 0 0 0 0 0 0 0 0 0 1x1
** *11 0 0 0 0 0 1 0 0 0 0 0 0 0 0 0 0 1x1
** *12 0 0 0 0 1 0 0 0 0 0 0 0 0 0 0 0 1x1
** *13 0 0 0 1 0 0 0 0 0 0 0 0 0 0 0 0 1x1
** *14 0 0 1 0 0 0 0 0 0 0 0 0 0 0 0 0 1x1
** *15 0 1 0 0 0 0 0 0 0 0 0 0 0 0 0 0 1x1
** *16 1 0 0 0 0 0 0 0 0 0 0 0 0 0 0 0 1x1

** *RESISTOR_TYPES
** *1 SHORTING_ELEMENT
** *2 PRES_NG
** *3 PRES_PG
** *4 PRES_NF
** *5 PRES_PF
** *6 TCN_NDIFF
** *7 TCN_PDIFF
** *8 TCN_NFIELD
** *9 TCN_PFIELD
** *10 QUALITY_EXTRACTED
** *11 GCNLAND
** *12 TCNLAND
** *13 DUMMY
** *14 RSD
** *15 BRIDGE

** *RESISTOR_CURRENT_DIRECTION
** *0 HORIZONTAL
** *1 VERTICAL
** *2 45 DEGREE

** QRC_TECH_DIR /vols/wfo_devel/projects/reference_SKY130/tech/sky130_release_0.0.4/quantus/extraction/typical 
** HIERARCHICAL_SPLIT_PINS_DELIMITER '%'
** caps2d version: 10
*
.SUBCKT  AOI221X2_HS A0 A1 B0 B1 C0 Y
*
*Net Section
*
*|GROUND_NET VSS!
*
*LAYER_MAP
*0 none
*1 metal1
*2 li
*3 poly
*4 diff
*5 licon_diff
*6 mcon
*7 licon
*8 FOX

*|NET B1 1.95254e-15
*|P (B1 X 0 2.3150 2.0650) // $llx=2.3150 $lly=2.0650 $urx=2.3150 $ury=2.0650 $lvl=1
*|I (Mmp3:g Mmp3 g X 0 2.1950 3.0150) // $llx=2.1950 $lly=3.0150 $urx=2.1950 $ury=3.0150 $lvl=3
*|I (Mmp3@1:g Mmp3@1 g X 0 2.6250 3.0150) // $llx=2.6250 $lly=3.0150 $urx=2.6250 $ury=3.0150 $lvl=3
*|I (Mmn3:g Mmn3 g X 0 2.7150 0.7750) // $llx=2.7150 $lly=0.7750 $urx=2.7150 $ury=0.7750 $lvl=3
*|I (Mmn3@1:g Mmn3@1 g X 0 3.1450 0.7750) // $llx=3.1450 $lly=0.7750 $urx=3.1450 $ury=0.7750 $lvl=3
*|S (B1:15 2.6250 3.8950) // $llx=2.6250 $lly=3.8950 $urx=2.6250 $ury=3.8950 $lvl=3
*|S (B1:16 2.5950 1.9000) // $llx=2.5950 $lly=1.9000 $urx=2.5950 $ury=1.9000 $lvl=3
*|S (B1:17 2.1950 1.9000) // $llx=2.1950 $lly=1.9000 $urx=2.1950 $ury=1.9000 $lvl=3
*|S (B1:18 2.5950 1.4300) // $llx=2.5950 $lly=1.4300 $urx=2.5950 $ury=1.4300 $lvl=3
*|S (B1:19 2.7450 1.4300) // $llx=2.7450 $lly=1.4300 $urx=2.7450 $ury=1.4300 $lvl=3
*|S (B1:20 2.7150 0.2450) // $llx=2.7150 $lly=0.2450 $urx=2.7150 $ury=0.2450 $lvl=3
*|S (B1:21 2.6995 1.9000) // $llx=2.6995 $lly=1.9000 $urx=2.6995 $ury=1.9000 $lvl=3
*|S (B1:22 2.1950 1.7350) // $llx=2.1950 $lly=1.7350 $urx=2.1950 $ury=1.7350 $lvl=3
*|S (B1:23 2.1950 2.0645) // $llx=2.1950 $lly=2.0645 $urx=2.1950 $ury=2.0645 $lvl=3
*|S (B1:24 2.1950 3.8950) // $llx=2.1950 $lly=3.8950 $urx=2.1950 $ury=3.8950 $lvl=3
*|S (B1:25 3.1450 1.4300) // $llx=3.1450 $lly=1.4300 $urx=3.1450 $ury=1.4300 $lvl=3
*|S (B1:26 3.1450 0.2450) // $llx=3.1450 $lly=0.2450 $urx=3.1450 $ury=0.2450 $lvl=3
*|S (B1:27 2.3000 1.9000) // $llx=2.3000 $lly=1.9000 $urx=2.3000 $ury=1.9000 $lvl=2
*|S (B1:28 2.1950 1.9000) // $llx=2.1950 $lly=1.9000 $urx=2.1950 $ury=1.9000 $lvl=2
*|S (B1:29 2.3000 2.6600) // $llx=2.3000 $lly=2.6600 $urx=2.3000 $ury=2.6600 $lvl=1
*|S (B1:30 2.3000 1.9000) // $llx=2.3000 $lly=1.9000 $urx=2.3000 $ury=1.9000 $lvl=1
*|S (B1:31 2.3000 1.4200) // $llx=2.3000 $lly=1.4200 $urx=2.3000 $ury=1.4200 $lvl=1
CD1 Mmn3@1:g VSS! 3.894e-18 $lvl=3
CD2 Mmp3@1:g VSS! 3.44303e-18 $lvl=3
CD3 B1:29 VSS! 1.83078e-17 $lvl=1
CD4 B1:31 VSS! 1.75295e-17 $lvl=1
CD5 B1:24 VSS! 3.37877e-18 $lvl=3
CD6 B1:20 VSS! 3.81087e-18 $lvl=3
CD7 B1:28 VSS! 1.49707e-17 $lvl=2
CD8 B1:27 VSS! 7.9247e-18 $lvl=2
CD9 B1:17 VSS! 2.21585e-17 $lvl=3
CD10 B1:31 net116 4.41292e-18 $lvl1=1 $lvl2=2
CD11 B1:28 net116 2.34944e-18 $lvl1=2 $lvl2=2
CD12 B1:17 net116 2.22835e-18 $lvl1=3 $lvl2=2
CD13 B1:20 net116 1.30693e-16 $lvl1=3 $lvl2=2
CD14 Mmn3@1:g net116:5 1.26968e-16 $lvl1=3 $lvl2=2
CD15 B1:31 net124:9 3.30667e-18 $lvl1=1 $lvl2=2
CD16 B1:17 net124:9 1.77085e-18 $lvl1=3 $lvl2=2
CD17 B1:28 net104:5 6.93796e-18 $lvl1=2 $lvl2=2
CD18 B1:29 net104:5 6.59837e-18 $lvl1=1 $lvl2=2
CD19 B1:17 net104 3.55006e-18 $lvl1=3 $lvl2=2
CD20 B1:17 net104:5 3.07902e-18 $lvl1=3 $lvl2=2
CD21 B1:28 net104 1.81112e-18 $lvl1=2 $lvl2=2
CD22 B1:29 net104:26 1.72926e-18 $lvl1=1 $lvl2=1
CD23 B1:29 net104 1.17188e-17 $lvl1=1 $lvl2=2
CD24 Mmp3@1:g net104 2.56477e-16 $lvl1=3 $lvl2=2
CD25 B1:24 net104 2.55098e-16 $lvl1=3 $lvl2=2
CD26 B1:29 net103:11 6.9815e-18 $lvl1=1 $lvl2=2
CD27 B1:28 net103:15 5.49088e-18 $lvl1=2 $lvl2=2
CD28 B1:29 net103:15 4.79292e-18 $lvl1=1 $lvl2=2
CD29 B1:29 net103:16 3.54181e-18 $lvl1=1 $lvl2=2
CD30 B1:17 net103:11 3.27653e-18 $lvl1=3 $lvl2=2
CD31 B1:29 net103:14 2.8789e-18 $lvl1=1 $lvl2=2
CD32 B1:17 net103:15 2.70931e-18 $lvl1=3 $lvl2=2
CD33 B1:29 net103:20 2.35715e-18 $lvl1=1 $lvl2=2
CD34 B1:29 net103:30 1.98169e-18 $lvl1=1 $lvl2=1
CD35 B1:28 net103:20 1.77607e-18 $lvl1=2 $lvl2=2
CD36 B1:28 net103:11 1.7539e-18 $lvl1=2 $lvl2=2
CD37 B1:29 net103:19 1.15569e-18 $lvl1=1 $lvl2=2
CD38 B1:17 Mmp3:s 9.64726e-19 $lvl1=3 $lvl2=4
CD39 Mmp3@1:g net103:20 9.053e-19 $lvl1=3 $lvl2=2
CD40 B1:28 net103:16 8.28032e-19 $lvl1=2 $lvl2=2
CD41 B1:24 net103:15 8.04848e-19 $lvl1=3 $lvl2=2
CD42 B1:27 net103:15 7.11598e-19 $lvl1=2 $lvl2=2
CD43 B1:29 net103:26 7.06707e-19 $lvl1=1 $lvl2=1
CD44 B1:29 net103:28 1.87671e-17 $lvl1=1 $lvl2=1
CD45 B1:24 net103:11 2.4525e-16 $lvl1=3 $lvl2=2
CD46 B1:29 net103:29 3.18222e-17 $lvl1=1 $lvl2=1
CD47 Mmp3@1:g net103:16 2.50466e-16 $lvl1=3 $lvl2=2
CD48 Mmn3@1:g VSS!:5 8.3521e-18 $lvl1=3 $lvl2=2
CD49 B1:20 VSS!:5 8.23065e-18 $lvl1=3 $lvl2=2
CD50 Mmn3@1:g VSS!:13 1.30439e-16 $lvl1=3 $lvl2=2
CD51 B1:20 VSS!:13 1.29906e-16 $lvl1=3 $lvl2=2
CD52 B1:24 VDD!:6 7.93199e-18 $lvl1=3 $lvl2=2
CD53 Mmp3@1:g VDD!:6 7.69308e-18 $lvl1=3 $lvl2=2
CD54 B1:29 VDD! 6.84677e-18 $lvl1=1 $lvl2=1
CD55 B1:31 VDD! 3.68911e-18 $lvl1=1 $lvl2=1
CD56 B1:17 VDD! 2.86997e-18 $lvl1=3 $lvl2=1
CD57 B1:29 VDD!:14 2.8275e-18 $lvl1=1 $lvl2=1
CD58 B1:29 VDD!:8 2.76341e-18 $lvl1=1 $lvl2=2
CD59 B1:31 Y:35 5.31796e-18 $lvl1=1 $lvl2=1
CD60 B1:29 Y:36 3.0125e-18 $lvl1=1 $lvl2=1
CD61 B1:31 Y:36 2.24529e-17 $lvl1=1 $lvl2=1
ReD65 B1:29 B1 0.286058 $metal1  $L=0.595 $W=0.260000 $SI_W=0.26 $TYPE=10 $DIR=1 $LLX=2.170000 $LLY=2.065000 $URX=2.430000 $URY=2.660000 $lvl=1
ReD66 B1 B1:30 0.079327 $metal1  $L=0.165 $W=0.260000 $SI_W=0.26 $TYPE=10 $DIR=1 $LLX=2.185000 $LLY=1.900000 $URX=2.445000 $URY=2.065000 $lvl=1
ReD67 B1:30 B1:31 0.230769 $metal1  $L=0.48 $W=0.260000 $SI_W=0.26 $TYPE=10 $DIR=1 $LLX=2.170000 $LLY=1.420000 $URX=2.430000 $URY=1.900000 $lvl=1
RfD68 B1:27 B1:28 7.905882 $li  $L=0.105 $W=0.170000 $SI_W=0.17 $TYPE=10 $DIR=0 $LLX=2.195000 $LLY=1.815000 $URX=2.300000 $URY=1.985000 $lvl=2
RgD69 B1:15 Mmp3@1:g 282.773346 $poly  $L=0.88 $W=0.150000 $SI_W=0.15 $TYPE=10 $DIR=1 $LLX=2.550000 $LLY=3.015000 $URX=2.700000 $URY=3.895000 $lvl=3
RgD70 Mmp3@1:g B1:16 365.858521 $poly  $L=1.11475 $W=0.150000 $SI_W=0.15 $TYPE=10 $DIR=1 $LLX=2.550000 $LLY=1.900000 $URX=2.700000 $URY=3.015000 $lvl=3
RgD71 B1:16 B1:17 109.333672 $poly  $L=0.40025 $W=0.150000 $SI_W=0.15 $TYPE=10 $DIR=0 $LLX=2.195000 $LLY=1.825000 $URX=2.595000 $URY=1.975000 $lvl=3
RgD72 B1:16 B1:18 166.331009 $poly  $L=0.47 $W=0.150000 $SI_W=0.15 $TYPE=10 $DIR=1 $LLX=2.550000 $LLY=1.430000 $URX=2.700000 $URY=1.900000 $lvl=3
RgD73 B1:18 B1:19 48.200001 $poly  $L=0.15 $W=0.150000 $SI_W=0.15 $TYPE=10 $DIR=0 $LLX=2.595000 $LLY=1.355000 $URX=2.745000 $URY=1.505000 $lvl=3
RgD74 B1:19 Mmn3:g 218.205841 $poly  $L=0.65525 $W=0.150000 $SI_W=0.15 $TYPE=10 $DIR=1 $LLX=2.640000 $LLY=0.775000 $URX=2.790000 $URY=1.430000 $lvl=3
RgD75 Mmn3:g B1:20 170.306671 $poly  $L=0.53 $W=0.150000 $SI_W=0.15 $TYPE=10 $DIR=1 $LLX=2.640000 $LLY=0.245000 $URX=2.790000 $URY=0.775000 $lvl=3
RgD76 B1:16 B1:21 33.499001 $poly  $L=0.10425 $W=0.150000 $SI_W=0.15 $TYPE=10 $DIR=0 $LLX=2.595000 $LLY=1.825000 $URX=2.699000 $URY=1.975000 $lvl=3
RgD77 B1:17 B1:22 29.455555 $poly  $L=0.165 $W=0.270000 $SI_W=0.27 $TYPE=10 $DIR=1 $LLX=2.060000 $LLY=1.735000 $URX=2.330000 $URY=1.900000 $lvl=3
RgD78 B1:17 B1:23 29.410927 $poly  $L=0.1645 $W=0.270000 $SI_W=0.27 $TYPE=10 $DIR=1 $LLX=2.060000 $LLY=1.900000 $URX=2.330000 $URY=2.064000 $lvl=3
RgD79 B1:23 Mmp3:g 305.311310 $poly  $L=0.95 $W=0.150000 $SI_W=0.15 $TYPE=10 $DIR=1 $LLX=2.120000 $LLY=2.064500 $URX=2.270000 $URY=3.014500 $lvl=3
RgD80 Mmp3:g B1:24 282.773346 $poly  $L=0.88 $W=0.150000 $SI_W=0.15 $TYPE=10 $DIR=1 $LLX=2.120000 $LLY=3.015000 $URX=2.270000 $URY=3.895000 $lvl=3
RgD81 B1:19 B1:25 128.533340 $poly  $L=0.4 $W=0.150000 $SI_W=0.15 $TYPE=10 $DIR=0 $LLX=2.745000 $LLY=1.355000 $URX=3.145000 $URY=1.505000 $lvl=3
RgD82 B1:25 Mmn3@1:g 210.553665 $poly  $L=0.65525 $W=0.150000 $SI_W=0.15 $TYPE=10 $DIR=1 $LLX=3.070000 $LLY=0.775000 $URX=3.220000 $URY=1.430000 $lvl=3
RgD83 Mmn3@1:g B1:26 170.306671 $poly  $L=0.53 $W=0.150000 $SI_W=0.15 $TYPE=10 $DIR=1 $LLX=3.070000 $LLY=0.245000 $URX=3.220000 $URY=0.775000 $lvl=3
RjD84 B1:27 B1:30 152.000000 $mcon  $L=0.17 $W=0.17 $A=0.0289 $VC=0 $SAVL=0 $SAVC=0 $SI_A=0.0289 $COVER_DIR=0 $LLX=0.000000 $LLY=0.000000 $URX=0.170000 $URY=0.170000 $lvl=6
RiD85 B1:17 B1:28 15.000000 $licon  $L=0.17 $W=0.17 $A=0.0289 $VC=0 $SAVL=0 $SAVC=0 $SI_A=0.0289 $COVER_DIR=0 $LLX=0.000000 $LLY=0.000000 $URX=0.170000 $URY=0.170000 $lvl=7
*
*|NET A0 1.97155e-15
*|P (A0 X 0 0.4750 1.8400) // $llx=0.4750 $lly=1.8400 $urx=0.4750 $ury=1.8400 $lvl=1
*|I (Mmp0:g Mmp0 g X 0 0.4750 3.0150) // $llx=0.4750 $lly=3.0150 $urx=0.4750 $ury=3.0150 $lvl=3
*|I (Mmp0@1:g Mmp0@1 g X 0 0.9050 3.0150) // $llx=0.9050 $lly=3.0150 $urx=0.9050 $ury=3.0150 $lvl=3
*|I (Mmn0:g Mmn0 g X 0 0.4750 0.7750) // $llx=0.4750 $lly=0.7750 $urx=0.4750 $ury=0.7750 $lvl=3
*|I (Mmn0@1:g Mmn0@1 g X 0 0.9050 0.7750) // $llx=0.9050 $lly=0.7750 $urx=0.9050 $ury=0.7750 $lvl=3
*|S (A0:15 0.9050 3.8950) // $llx=0.9050 $lly=3.8950 $urx=0.9050 $ury=3.8950 $lvl=3
*|S (A0:16 0.9050 1.9000) // $llx=0.9050 $lly=1.9000 $urx=0.9050 $ury=1.9000 $lvl=3
*|S (A0:17 0.6900 1.9000) // $llx=0.6900 $lly=1.9000 $urx=0.6900 $ury=1.9000 $lvl=3
*|S (A0:18 0.4750 1.9000) // $llx=0.4750 $lly=1.9000 $urx=0.4750 $ury=1.9000 $lvl=3
*|S (A0:19 0.4650 1.7350) // $llx=0.4650 $lly=1.7350 $urx=0.4650 $ury=1.7350 $lvl=3
*|S (A0:20 0.9150 1.7350) // $llx=0.9150 $lly=1.7350 $urx=0.9150 $ury=1.7350 $lvl=3
*|S (A0:21 0.9050 0.2450) // $llx=0.9050 $lly=0.2450 $urx=0.9050 $ury=0.2450 $lvl=3
*|S (A0:22 0.4650 2.0645) // $llx=0.4650 $lly=2.0645 $urx=0.4650 $ury=2.0645 $lvl=3
*|S (A0:23 0.4750 3.8950) // $llx=0.4750 $lly=3.8950 $urx=0.4750 $ury=3.8950 $lvl=3
*|S (A0:24 0.4750 0.2450) // $llx=0.4750 $lly=0.2450 $urx=0.4750 $ury=0.2450 $lvl=3
*|S (A0:25 1.0300 1.9000) // $llx=1.0300 $lly=1.9000 $urx=1.0300 $ury=1.9000 $lvl=2
*|S (A0:26 0.6900 1.9000) // $llx=0.6900 $lly=1.9000 $urx=0.6900 $ury=1.9000 $lvl=2
*|S (A0:27 0.4600 1.9000) // $llx=0.4600 $lly=1.9000 $urx=0.4600 $ury=1.9000 $lvl=2
*|S (A0:28 0.0950 1.9000) // $llx=0.0950 $lly=1.9000 $urx=0.0950 $ury=1.9000 $lvl=2
*|S (A0:29 0.4600 2.4300) // $llx=0.4600 $lly=2.4300 $urx=0.4600 $ury=2.4300 $lvl=1
*|S (A0:30 0.4600 1.9000) // $llx=0.4600 $lly=1.9000 $urx=0.4600 $ury=1.9000 $lvl=1
*|S (A0:31 0.4600 1.1900) // $llx=0.4600 $lly=1.1900 $urx=0.4600 $ury=1.1900 $lvl=1
CA1 Mmn0@1:g VSS! 1.52345e-18 $lvl=3
CA2 Mmn0:g VSS! 2.95344e-18 $lvl=3
CA3 A0:29 VSS! 1.01797e-17 $lvl=1
CA4 A0:31 VSS! 1.24905e-17 $lvl=1
CA5 A0:15 VSS! 3.42654e-18 $lvl=3
CA6 A0:23 VSS! 2.20905e-18 $lvl=3
CA7 A0:26 VSS! 5.45501e-18 $lvl=2
CA8 A0:28 VSS! 7.50455e-18 $lvl=2
CA9 A0:27 VSS! 4.25687e-18 $lvl=2
CA10 A0:17 VSS! 2.6949e-17 $lvl=3
CA11 A0 VSS! 7.23554e-18 $lvl=1
CA12 A0:31 net124:15 5.84764e-18 $lvl1=1 $lvl2=1
CA13 A0:17 net124 3.41696e-18 $lvl1=3 $lvl2=2
CA14 A0:28 net124 3.02726e-18 $lvl1=2 $lvl2=2
CA15 A0:31 net124:5 2.76333e-18 $lvl1=1 $lvl2=2
CA16 A0:31 net124:4 1.18711e-18 $lvl1=1 $lvl2=2
CA17 A0:26 net124 1.15585e-18 $lvl1=2 $lvl2=2
CA18 A0 net124 9.39348e-19 $lvl1=1 $lvl2=2
CA19 A0:27 net124 9.25129e-19 $lvl1=2 $lvl2=2
CA20 A0:17 net124:5 8.5659e-19 $lvl1=3 $lvl2=2
CA21 A0:29 net124 7.5925e-19 $lvl1=1 $lvl2=2
CA22 Mmn0@1:g net124 7.171e-19 $lvl1=3 $lvl2=2
CA23 A0 net124:17 6.98146e-19 $lvl1=1 $lvl2=1
CA24 A0:31 net124 1.27523e-17 $lvl1=1 $lvl2=2
CA25 Mmn0@1:g net124:5 1.27132e-16 $lvl1=3 $lvl2=2
CA26 Mmn0:g net124 1.28179e-16 $lvl1=3 $lvl2=2
CA27 A0:31 net124:17 1.09047e-17 $lvl1=1 $lvl2=1
CA28 A0:29 net103:30 7.90098e-18 $lvl1=1 $lvl2=1
CA29 A0:29 net103 7.81825e-18 $lvl1=1 $lvl2=2
CA30 A0:28 net103:5 6.27885e-18 $lvl1=2 $lvl2=2
CA31 A0:29 net103:5 5.22161e-18 $lvl1=1 $lvl2=2
CA32 A0:26 net103:10 4.64855e-18 $lvl1=2 $lvl2=2
CA33 A0:17 net103 4.24601e-18 $lvl1=3 $lvl2=2
CA34 A0:28 net103 4.22125e-18 $lvl1=2 $lvl2=2
CA35 A0:17 net103:10 3.27136e-18 $lvl1=3 $lvl2=2
CA36 A0:17 net103:6 3.24396e-18 $lvl1=3 $lvl2=2
CA37 A0:17 net103:5 2.9411e-18 $lvl1=3 $lvl2=2
CA38 A0:27 net103:5 2.27258e-18 $lvl1=2 $lvl2=2
CA39 A0:26 net103:6 1.65656e-18 $lvl1=2 $lvl2=2
CA40 A0:31 net103:32 1.6448e-18 $lvl1=1 $lvl2=1
CA41 A0:26 net103:5 1.50212e-18 $lvl1=2 $lvl2=2
CA42 A0:17 Mmp0:d 1.46783e-18 $lvl1=3 $lvl2=4
CA43 A0:29 net103:6 1.32563e-18 $lvl1=1 $lvl2=2
CA44 A0:29 net103:10 1.14584e-18 $lvl1=1 $lvl2=2
CA45 A0:31 net103 1.10508e-18 $lvl1=1 $lvl2=2
CA46 A0:17 Mmp1:d 1.03926e-18 $lvl1=3 $lvl2=4
CA47 A0 net103:32 9.16365e-19 $lvl1=1 $lvl2=1
CA48 A0:26 net103 8.69147e-19 $lvl1=2 $lvl2=2
CA49 A0 net103 7.98173e-19 $lvl1=1 $lvl2=2
CA50 A0:31 net103:30 7.81116e-19 $lvl1=1 $lvl2=1
CA51 A0:23 net103:5 7.70275e-19 $lvl1=3 $lvl2=2
CA52 A0 net103:30 7.42924e-19 $lvl1=1 $lvl2=1
CA53 A0:27 net103 7.32668e-19 $lvl1=2 $lvl2=2
CA54 A0:28 net103:32 7.19929e-19 $lvl1=2 $lvl2=1
CA55 A0 net103:5 6.98634e-19 $lvl1=1 $lvl2=2
CA56 A0:31 net103:5 6.42676e-19 $lvl1=1 $lvl2=2
CA57 A0:29 net103:32 1.62088e-17 $lvl1=1 $lvl2=1
CA58 A0:23 net103 2.49514e-16 $lvl1=3 $lvl2=2
CA59 A0:15 net103:6 2.55378e-16 $lvl1=3 $lvl2=2
CA60 Mmn0@1:g VSS!:9 9.62053e-18 $lvl1=3 $lvl2=2
CA61 A0:31 VSS!:16 9.37637e-18 $lvl1=1 $lvl2=2
CA62 Mmn0:g VSS!:9 6.8412e-18 $lvl1=3 $lvl2=2
CA63 A0:31 VSS!:18 3.27483e-18 $lvl1=1 $lvl2=1
CA64 A0:17 VSS!:16 3.01437e-18 $lvl1=3 $lvl2=2
CA65 A0:31 VSS!:19 1.99821e-18 $lvl1=1 $lvl2=1
CA66 A0:26 VSS!:16 1.5166e-18 $lvl1=2 $lvl2=2
CA67 Mmn0@1:g VSS!:16 1.33848e-16 $lvl1=3 $lvl2=2
CA68 Mmn0:g VSS!:16 1.29498e-16 $lvl1=3 $lvl2=2
CA69 A0:28 VDD! 8.95047e-18 $lvl1=2 $lvl2=1
CA70 A0:17 VDD! 8.86396e-18 $lvl1=3 $lvl2=1
CA71 A0:15 VDD!:4 8.458e-18 $lvl1=3 $lvl2=2
CA72 A0:23 VDD!:4 7.96163e-18 $lvl1=3 $lvl2=2
CA73 A0:26 VDD!:1 7.61666e-18 $lvl1=2 $lvl2=2
CA74 A0 VDD! 6.37325e-18 $lvl1=1 $lvl2=1
CA75 A0:27 VDD!:1 2.754e-18 $lvl1=2 $lvl2=2
CA76 A0:29 VDD!:14 2.22706e-18 $lvl1=1 $lvl2=1
CA77 A0:17 VDD!:8 1.5899e-18 $lvl1=3 $lvl2=2
CA78 A0:17 Mmp0:s 1.56079e-18 $lvl1=3 $lvl2=4
CA79 A0:26 VDD!:8 1.38737e-18 $lvl1=2 $lvl2=2
CA80 A0:15 VDD!:6 1.26038e-18 $lvl1=3 $lvl2=2
CA81 A0:31 VDD!:14 1.23026e-18 $lvl1=1 $lvl2=1
CA82 A0:27 VDD! 9.87506e-19 $lvl1=2 $lvl2=1
CA83 A0:23 VDD!:1 2.53963e-16 $lvl1=3 $lvl2=2
CA84 A0:15 VDD!:1 2.51601e-16 $lvl1=3 $lvl2=2
CA85 A0:17 VDD!:1 1.00573e-17 $lvl1=3 $lvl2=2
CA86 A0:29 VDD! 1.27698e-17 $lvl1=1 $lvl2=1
CA87 A0:29 VDD!:1 1.00246e-17 $lvl1=1 $lvl2=2
CA88 A0:31 VDD! 1.88265e-17 $lvl1=1 $lvl2=1
CA89 A0:26 A1:28 7.95254e-18 $lvl1=2 $lvl2=2
CA90 A0:17 A1:28 6.16027e-18 $lvl1=3 $lvl2=2
CA91 A0:26 A1:29 5.96642e-18 $lvl1=2 $lvl2=1
CA92 A0:17 A1:17 5.21058e-18 $lvl1=3 $lvl2=3
CA93 A0:31 A1:29 4.5135e-18 $lvl1=1 $lvl2=1
CA94 A0 A1:29 4.20391e-18 $lvl1=1 $lvl2=1
CA95 A0:31 A1:28 4.09581e-18 $lvl1=1 $lvl2=2
CA96 A0:26 A1:31 2.95423e-18 $lvl1=2 $lvl2=1
CA97 A0 A1:31 2.64043e-18 $lvl1=1 $lvl2=1
CA98 A0:26 A1:17 2.24873e-18 $lvl1=2 $lvl2=3
CA99 A0:17 A1:23 2.10319e-18 $lvl1=3 $lvl2=3
CA100 Mmn0@1:g A1:17 2.0441e-18 $lvl1=3 $lvl2=3
CA101 A0:29 A1:31 1.92844e-18 $lvl1=1 $lvl2=1
CA102 Mmn0@1:g A1:28 1.38325e-18 $lvl1=3 $lvl2=2
CA103 A0:17 A1:29 1.32222e-18 $lvl1=3 $lvl2=1
CA104 A0:26 A1:27 8.4704e-19 $lvl1=2 $lvl2=2
CA105 A0:26 A1:26 8.27316e-19 $lvl1=2 $lvl2=2
CA106 A0:29 A1:29 1.01272e-17 $lvl1=1 $lvl2=1
CA107 A0:31 A1:31 1.04021e-17 $lvl1=1 $lvl2=1
ReA1 A0:29 A0:30 0.254808 $metal1  $L=0.53 $W=0.260000 $SI_W=0.26 $TYPE=10 $DIR=1 $LLX=0.330000 $LLY=1.900000 $URX=0.590000 $URY=2.430000 $lvl=1
ReA2 A0:30 A0 0.028846 $metal1  $L=0.06 $W=0.260000 $SI_W=0.26 $TYPE=10 $DIR=1 $LLX=0.330000 $LLY=1.840000 $URX=0.590000 $URY=1.900000 $lvl=1
ReA3 A0 A0:31 0.312500 $metal1  $L=0.65 $W=0.260000 $SI_W=0.26 $TYPE=10 $DIR=1 $LLX=0.330000 $LLY=1.190000 $URX=0.590000 $URY=1.840000 $lvl=1
RfA4 A0:25 A0:26 25.600000 $li  $L=0.34 $W=0.170000 $SI_W=0.17 $TYPE=10 $DIR=0 $LLX=0.690000 $LLY=1.815000 $URX=1.030000 $URY=1.985000 $lvl=2
RfA5 A0:26 A0:27 17.317646 $li  $L=0.23 $W=0.170000 $SI_W=0.17 $TYPE=10 $DIR=0 $LLX=0.460000 $LLY=1.815000 $URX=0.690000 $URY=1.985000 $lvl=2
RfA6 A0:27 A0:28 27.482355 $li  $L=0.365 $W=0.170000 $SI_W=0.17 $TYPE=10 $DIR=0 $LLX=0.095000 $LLY=1.815000 $URX=0.460000 $URY=1.985000 $lvl=2
RgA7 A0:15 Mmp0@1:g 282.773346 $poly  $L=0.88 $W=0.150000 $SI_W=0.15 $TYPE=10 $DIR=1 $LLX=0.830000 $LLY=3.015000 $URX=0.980000 $URY=3.895000 $lvl=3
RgA8 Mmp0@1:g A0:16 352.765503 $poly  $L=1.11475 $W=0.150000 $SI_W=0.15 $TYPE=10 $DIR=1 $LLX=0.830000 $LLY=1.900000 $URX=0.980000 $URY=3.015000 $lvl=3
RgA9 A0:16 A0:17 31.439547 $poly  $L=0.21525 $W=0.330000 $SI_W=0.33 $TYPE=10 $DIR=0 $LLX=0.690000 $LLY=1.735000 $URX=0.905000 $URY=2.065000 $lvl=3
RgA10 A0:17 A0:18 31.366514 $poly  $L=0.21475 $W=0.330000 $SI_W=0.33 $TYPE=10 $DIR=0 $LLX=0.475000 $LLY=1.735000 $URX=0.690000 $URY=2.065000 $lvl=3
RgA11 A0:18 A0:19 46.784668 $poly  $L=0.16475 $W=0.170000 $SI_W=0.17 $TYPE=10 $DIR=1 $LLX=0.380000 $LLY=1.735000 $URX=0.550000 $URY=1.900000 $lvl=3
RgA12 A0:19 Mmn0:g 308.550873 $poly  $L=0.96 $W=0.150000 $SI_W=0.15 $TYPE=10 $DIR=1 $LLX=0.400000 $LLY=0.775000 $URX=0.550000 $URY=1.735000 $lvl=3
RgA13 A0:16 A0:20 46.784668 $poly  $L=0.16475 $W=0.170000 $SI_W=0.17 $TYPE=10 $DIR=1 $LLX=0.830000 $LLY=1.735000 $URX=1.000000 $URY=1.900000 $lvl=3
RgA14 A0:20 Mmn0@1:g 308.550873 $poly  $L=0.96 $W=0.150000 $SI_W=0.15 $TYPE=10 $DIR=1 $LLX=0.830000 $LLY=0.775000 $URX=0.980000 $URY=1.735000 $lvl=3
RgA15 Mmn0@1:g A0:21 170.306671 $poly  $L=0.53 $W=0.150000 $SI_W=0.15 $TYPE=10 $DIR=1 $LLX=0.830000 $LLY=0.245000 $URX=0.980000 $URY=0.775000 $lvl=3
RgA16 A0:18 A0:22 46.642902 $poly  $L=0.16425 $W=0.170000 $SI_W=0.17 $TYPE=10 $DIR=1 $LLX=0.380000 $LLY=1.900500 $URX=0.550000 $URY=2.064500 $lvl=3
RgA17 A0:22 Mmp0:g 305.337555 $poly  $L=0.95 $W=0.150000 $SI_W=0.15 $TYPE=10 $DIR=1 $LLX=0.400000 $LLY=2.064500 $URX=0.550000 $URY=3.014500 $lvl=3
RgA18 Mmp0:g A0:23 282.773346 $poly  $L=0.88 $W=0.150000 $SI_W=0.15 $TYPE=10 $DIR=1 $LLX=0.400000 $LLY=3.015000 $URX=0.550000 $URY=3.895000 $lvl=3
RgA19 Mmn0:g A0:24 170.306671 $poly  $L=0.53 $W=0.150000 $SI_W=0.15 $TYPE=10 $DIR=1 $LLX=0.400000 $LLY=0.245000 $URX=0.550000 $URY=0.775000 $lvl=3
RjA20 A0:27 A0:30 152.000000 $mcon  $L=0.17 $W=0.17 $A=0.0289 $VC=0 $SAVL=0 $SAVC=0 $SI_A=0.0289 $COVER_DIR=0 $LLX=0.000000 $LLY=0.000000 $URX=0.170000 $URY=0.170000 $lvl=6
RiA21 A0:17 A0:26 7.500000 $licon  $A=0.0578 $VC=0 $SAVL=0 $SAVC=0 $SI_A=0.0578 $COVER_DIR=0 $LLX=0.000000 $LLY=0.000000 $URX=-0.057800 $URY=-2.000000 $lvl=7
*
*|NET net124 1.56992e-15
*|I (Mmn1:s Mmn1 s X 0 1.2595 0.7750) // $llx=1.2595 $lly=0.7750 $urx=1.2595 $ury=0.7750 $lvl=4
*|I (Mmn1@1:s Mmn1@1 s X 0 1.8405 0.7750) // $llx=1.8405 $lly=0.7750 $urx=1.8405 $ury=0.7750 $lvl=4
*|I (Mmn0:d Mmn0 d X 0 0.3995 0.7750) // $llx=0.3995 $lly=0.7750 $urx=0.3995 $ury=0.7750 $lvl=4
*|I (Mmn0@1:d Mmn0@1 d X 0 0.9805 0.7750) // $llx=0.9805 $lly=0.7750 $urx=0.9805 $ury=0.7750 $lvl=4
*|S (net124 0.2600 1.1550) // $llx=0.2600 $lly=1.1550 $urx=0.2600 $ury=1.1550 $lvl=2
*|S (net124:3 0.2600 0.7750) // $llx=0.2600 $lly=0.7750 $urx=0.2600 $ury=0.7750 $lvl=2
*|S (net124:4 0.2600 0.4800) // $llx=0.2600 $lly=0.4800 $urx=0.2600 $ury=0.4800 $lvl=2
*|S (net124:5 1.1200 1.1550) // $llx=1.1200 $lly=1.1550 $urx=1.1200 $ury=1.1550 $lvl=2
*|S (net124:7 1.1200 0.7750) // $llx=1.1200 $lly=0.7750 $urx=1.1200 $ury=0.7750 $lvl=2
*|S (net124:8 1.1200 0.4800) // $llx=1.1200 $lly=0.4800 $urx=1.1200 $ury=0.4800 $lvl=2
*|S (net124:9 1.9800 1.1550) // $llx=1.9800 $lly=1.1550 $urx=1.9800 $ury=1.1550 $lvl=2
*|S (net124:11 1.9800 0.7750) // $llx=1.9800 $lly=0.7750 $urx=1.9800 $ury=0.7750 $lvl=2
*|S (net124:12 1.9800 0.4800) // $llx=1.9800 $lly=0.4800 $urx=1.9800 $ury=0.4800 $lvl=2
*|S (net124:13 2.1250 0.4800) // $llx=2.1250 $lly=0.4800 $urx=2.1250 $ury=0.4800 $lvl=1
*|S (net124:14 1.9800 0.4800) // $llx=1.9800 $lly=0.4800 $urx=1.9800 $ury=0.4800 $lvl=1
*|S (net124:15 1.1200 0.4800) // $llx=1.1200 $lly=0.4800 $urx=1.1200 $ury=0.4800 $lvl=1
*|S (net124:16 0.2600 0.4800) // $llx=0.2600 $lly=0.4800 $urx=0.2600 $ury=0.4800 $lvl=1
*|S (net124:17 0.1150 0.4800) // $llx=0.1150 $lly=0.4800 $urx=0.1150 $ury=0.4800 $lvl=1
CK1 Mmn0:d VSS! 1.91985e-18 $lvl=4
CK2 Mmn1@1:s VSS! 1.67143e-18 $lvl=4
CK3 Mmn1:s VSS! 3.02576e-18 $lvl=4
CK4 net124:15 VSS! 6.89211e-18 $lvl=1
CK5 net124:13 VSS! 7.67058e-18 $lvl=1
CK6 net124:17 VSS! 8.04748e-18 $lvl=1
CK7 net124:9 VSS! 2.2494e-17 $lvl=2
CK8 net124:5 VSS! 1.27595e-17 $lvl=2
CK9 net124:4 VSS! 2.7038e-18 $lvl=2
CK10 net124:8 VSS! 1.57978e-18 $lvl=2
CK11 net124:12 VSS! 2.20674e-18 $lvl=2
CK12 net124 VSS! 2.02018e-17 $lvl=2
CK13 net124:9 Mmn3:d 4.49446e-18 $lvl1=2 $lvl2=4
CK14 Mmn1@1:s net116 4.30665e-18 $lvl1=4 $lvl2=2
CK15 net124:12 net116 3.93811e-18 $lvl1=2 $lvl2=2
CK16 net124:12 net116:4 1.61542e-18 $lvl1=2 $lvl2=2
CK17 net124:9 net116 4.60525e-17 $lvl1=2 $lvl2=2
CK18 net124:13 net116:17 1.57565e-17 $lvl1=1 $lvl2=1
CK19 net124:8 VSS!:9 7.75536e-18 $lvl1=2 $lvl2=2
CK20 net124:8 VSS!:18 7.69012e-18 $lvl1=2 $lvl2=1
CK21 net124:17 VSS!:16 7.66178e-18 $lvl1=1 $lvl2=2
CK22 net124:12 VSS!:18 7.59633e-18 $lvl1=2 $lvl2=1
CK23 net124:8 VSS!:16 7.12532e-18 $lvl1=2 $lvl2=2
CK24 net124:15 VSS!:16 6.60459e-18 $lvl1=1 $lvl2=2
CK25 net124:8 VSS!:5 4.95031e-18 $lvl1=2 $lvl2=2
CK26 net124:4 VSS!:19 4.4659e-18 $lvl1=2 $lvl2=1
CK27 net124 VSS!:19 4.25028e-18 $lvl1=2 $lvl2=1
CK28 net124 VSS!:6 3.13647e-18 $lvl1=2 $lvl2=4
CK29 net124:15 VSS!:5 2.9234e-18 $lvl1=1 $lvl2=2
CK30 net124:15 VSS!:9 2.89121e-18 $lvl1=1 $lvl2=2
CK31 net124:4 VSS!:18 2.87622e-18 $lvl1=2 $lvl2=1
CK32 net124:9 VSS!:9 2.75766e-18 $lvl1=2 $lvl2=2
CK33 net124:4 VSS!:16 2.47401e-18 $lvl1=2 $lvl2=2
CK34 net124:13 VSS!:5 2.41977e-18 $lvl1=1 $lvl2=2
CK35 net124:4 VSS!:10 2.03857e-18 $lvl1=2 $lvl2=2
CK36 net124:17 VSS!:9 1.95888e-18 $lvl1=1 $lvl2=2
CK37 net124:17 VSS!:5 1.79698e-18 $lvl1=1 $lvl2=2
CK38 net124 VSS!:5 1.69346e-18 $lvl1=2 $lvl2=2
CK39 net124:4 VSS!:5 1.68493e-18 $lvl1=2 $lvl2=2
CK40 net124 VSS!:18 1.66104e-18 $lvl1=2 $lvl2=1
CK41 Mmn1@1:s VSS!:5 1.59562e-18 $lvl1=4 $lvl2=2
CK42 net124:15 VSS!:19 1.57088e-18 $lvl1=1 $lvl2=1
CK43 net124:9 VSS!:6 1.53161e-18 $lvl1=2 $lvl2=4
CK44 net124:5 VSS!:5 1.37832e-18 $lvl1=2 $lvl2=2
CK45 net124:12 VSS!:9 1.30015e-18 $lvl1=2 $lvl2=2
CK46 net124:4 VSS!:9 1.07118e-18 $lvl1=2 $lvl2=2
CK47 Mmn0:d VSS!:9 1.01399e-18 $lvl1=4 $lvl2=2
CK48 net124:17 VSS!:10 9.88229e-19 $lvl1=1 $lvl2=2
CK49 net124 Mmn0:s 9.82042e-19 $lvl1=2 $lvl2=4
CK50 net124:13 VSS!:9 9.66429e-19 $lvl1=1 $lvl2=2
CK51 Mmn0:d VSS!:16 9.14013e-19 $lvl1=4 $lvl2=2
CK52 net124:9 VSS!:5 1.8981e-17 $lvl1=2 $lvl2=2
CK53 net124:5 VSS!:16 5.10758e-17 $lvl1=2 $lvl2=2
CK54 net124:13 VSS!:18 6.0606e-17 $lvl1=1 $lvl2=1
CK55 net124 VSS!:16 5.74267e-17 $lvl1=2 $lvl2=2
CK56 net124:15 VSS!:18 7.95063e-17 $lvl1=1 $lvl2=1
CK57 net124:12 VSS!:5 1.1632e-17 $lvl1=2 $lvl2=2
CK58 net124:17 VSS!:18 3.87742e-17 $lvl1=1 $lvl2=1
CK59 net124 VSS!:9 1.44022e-17 $lvl1=2 $lvl2=2
CK60 net124 VSS!:10 1.28037e-17 $lvl1=2 $lvl2=2
CK61 net124:5 VSS!:9 1.78874e-17 $lvl1=2 $lvl2=2
CK62 net124:17 VSS!:19 2.65755e-17 $lvl1=1 $lvl2=1
ReK265 net124:13 net124:14 0.106618 $metal1  $L=0.145 $W=0.170000 $SI_W=0.17 $TYPE=10 $DIR=0 $LLX=1.980000 $LLY=0.395000 $URX=2.125000 $URY=0.565000 $lvl=1
ReK266 net124:14 net124:15 0.632353 $metal1  $L=0.86 $W=0.170000 $SI_W=0.17 $TYPE=10 $DIR=0 $LLX=1.120000 $LLY=0.395000 $URX=1.980000 $URY=0.565000 $lvl=1
ReK267 net124:15 net124:16 0.632353 $metal1  $L=0.86 $W=0.170000 $SI_W=0.17 $TYPE=10 $DIR=0 $LLX=0.260000 $LLY=0.395000 $URX=1.120000 $URY=0.565000 $lvl=1
ReK268 net124:16 net124:17 0.106618 $metal1  $L=0.145 $W=0.170000 $SI_W=0.17 $TYPE=10 $DIR=0 $LLX=0.115000 $LLY=0.395000 $URX=0.260000 $URY=0.565000 $lvl=1
RfK269 net124 net124:3 28.611765 $li  $L=0.38 $W=0.170000 $SI_W=0.17 $TYPE=10 $DIR=1 $LLX=0.175000 $LLY=0.775000 $URX=0.345000 $URY=1.155000 $lvl=2
RfK270 net124:3 net124:4 22.211765 $li  $L=0.295 $W=0.170000 $SI_W=0.17 $TYPE=10 $DIR=1 $LLX=0.175000 $LLY=0.480000 $URX=0.345000 $URY=0.775000 $lvl=2
RfK271 net124:5 net124:7 28.611765 $li  $L=0.38 $W=0.170000 $SI_W=0.17 $TYPE=10 $DIR=1 $LLX=1.035000 $LLY=0.775000 $URX=1.205000 $URY=1.155000 $lvl=2
RfK272 net124:7 net124:8 22.211765 $li  $L=0.295 $W=0.170000 $SI_W=0.17 $TYPE=10 $DIR=1 $LLX=1.035000 $LLY=0.480000 $URX=1.205000 $URY=0.775000 $lvl=2
RfK273 net124:9 net124:11 28.611765 $li  $L=0.38 $W=0.170000 $SI_W=0.17 $TYPE=10 $DIR=1 $LLX=1.895000 $LLY=0.775000 $URX=2.065000 $URY=1.155000 $lvl=2
RfK274 net124:11 net124:12 22.211765 $li  $L=0.295 $W=0.170000 $SI_W=0.17 $TYPE=10 $DIR=1 $LLX=1.895000 $LLY=0.480000 $URX=2.065000 $URY=0.775000 $lvl=2
RhK275 Mmn0:d net124:3 7.500000 $licon_diff  $A=0.0578 $VC=0 $SAVL=0 $SAVC=0 $SI_A=0.0578 $COVER_DIR=0 $LLX=0.000000 $LLY=0.000000 $URX=-0.057800 $URY=-2.000000 $lvl=5
RhK276 Mmn1:s net124:7 7.500000 $licon_diff  $A=0.0578 $VC=0 $SAVL=0 $SAVC=0 $SI_A=0.0578 $COVER_DIR=0 $LLX=0.000000 $LLY=0.000000 $URX=-0.057800 $URY=-2.000000 $lvl=5
RhK277 Mmn1@1:s net124:11 7.500000 $licon_diff  $A=0.0578 $VC=0 $SAVL=0 $SAVC=0 $SI_A=0.0578 $COVER_DIR=0 $LLX=0.000000 $LLY=0.000000 $URX=-0.057800 $URY=-2.000000 $lvl=5
RjK278 net124:12 net124:14 152.000000 $mcon  $L=0.17 $W=0.17 $A=0.0289 $VC=0 $SAVL=0 $SAVC=0 $SI_A=0.0289 $COVER_DIR=0 $LLX=0.000000 $LLY=0.000000 $URX=0.170000 $URY=0.170000 $lvl=6
RjK279 net124:8 net124:15 152.000000 $mcon  $L=0.17 $W=0.17 $A=0.0289 $VC=0 $SAVL=0 $SAVC=0 $SI_A=0.0289 $COVER_DIR=0 $LLX=0.000000 $LLY=0.000000 $URX=0.170000 $URY=0.170000 $lvl=6
RjK280 net124:4 net124:16 152.000000 $mcon  $L=0.17 $W=0.17 $A=0.0289 $VC=0 $SAVL=0 $SAVC=0 $SI_A=0.0289 $COVER_DIR=0 $LLX=0.000000 $LLY=0.000000 $URX=0.170000 $URY=0.170000 $lvl=6
RmwK281 Mmn0@1:d Mmn1:s 0.001000 $diff $W=1000000 $SI_W=1000000 $TYPE=1 $DIR=0
*
*|NET net104 3.38811e-15
*|I (Mmp4:s Mmp4 s X 0 4.8795 3.0150) // $llx=4.8795 $lly=3.0150 $urx=4.8795 $ury=3.0150 $lvl=4
*|I (Mmp4@1:s Mmp4@1 s X 0 5.4605 3.0150) // $llx=5.4605 $lly=3.0150 $urx=5.4605 $ury=3.0150 $lvl=4
*|I (Mmp3:d Mmp3 d X 0 2.2705 3.0150) // $llx=2.2705 $lly=3.0150 $urx=2.2705 $ury=3.0150 $lvl=4
*|I (Mmp3@1:d Mmp3@1 d X 0 2.5495 3.0150) // $llx=2.5495 $lly=3.0150 $urx=2.5495 $ury=3.0150 $lvl=4
*|I (Mmp2:d Mmp2 d X 0 3.1305 3.0150) // $llx=3.1305 $lly=3.0150 $urx=3.1305 $ury=3.0150 $lvl=4
*|I (Mmp2@1:d Mmp2@1 d X 0 3.4095 3.0150) // $llx=3.4095 $lly=3.0150 $urx=3.4095 $ury=3.0150 $lvl=4
*|S (net104 2.4100 3.7450) // $llx=2.4100 $lly=3.7450 $urx=2.4100 $ury=3.7450 $lvl=2
*|S (net104:2 2.4100 3.3250) // $llx=2.4100 $lly=3.3250 $urx=2.4100 $ury=3.3250 $lvl=2
*|S (net104:4 2.4100 3.0150) // $llx=2.4100 $lly=3.0150 $urx=2.4100 $ury=3.0150 $lvl=2
*|S (net104:5 2.4100 2.2850) // $llx=2.4100 $lly=2.2850 $urx=2.4100 $ury=2.2850 $lvl=2
*|S (net104:6 3.2700 3.7450) // $llx=3.2700 $lly=3.7450 $urx=3.2700 $ury=3.7450 $lvl=2
*|S (net104:7 3.2700 3.3250) // $llx=3.2700 $lly=3.3250 $urx=3.2700 $ury=3.3250 $lvl=2
*|S (net104:9 3.2700 3.0150) // $llx=3.2700 $lly=3.0150 $urx=3.2700 $ury=3.0150 $lvl=2
*|S (net104:10 3.2700 2.2850) // $llx=3.2700 $lly=2.2850 $urx=3.2700 $ury=2.2850 $lvl=2
*|S (net104:11 4.7400 3.7450) // $llx=4.7400 $lly=3.7450 $urx=4.7400 $ury=3.7450 $lvl=2
*|S (net104:12 4.7400 3.3250) // $llx=4.7400 $lly=3.3250 $urx=4.7400 $ury=3.3250 $lvl=2
*|S (net104:14 4.7400 3.0150) // $llx=4.7400 $lly=3.0150 $urx=4.7400 $ury=3.0150 $lvl=2
*|S (net104:15 4.7400 2.2850) // $llx=4.7400 $lly=2.2850 $urx=4.7400 $ury=2.2850 $lvl=2
*|S (net104:16 5.6000 3.7450) // $llx=5.6000 $lly=3.7450 $urx=5.6000 $ury=3.7450 $lvl=2
*|S (net104:17 5.6000 3.3250) // $llx=5.6000 $lly=3.3250 $urx=5.6000 $ury=3.3250 $lvl=2
*|S (net104:19 5.6000 3.0150) // $llx=5.6000 $lly=3.0150 $urx=5.6000 $ury=3.0150 $lvl=2
*|S (net104:20 5.6000 2.2850) // $llx=5.6000 $lly=2.2850 $urx=5.6000 $ury=2.2850 $lvl=2
*|S (net104:21 5.7450 3.3250) // $llx=5.7450 $lly=3.3250 $urx=5.7450 $ury=3.3250 $lvl=1
*|S (net104:22 5.6000 3.3250) // $llx=5.6000 $lly=3.3250 $urx=5.6000 $ury=3.3250 $lvl=1
*|S (net104:23 4.7400 3.3250) // $llx=4.7400 $lly=3.3250 $urx=4.7400 $ury=3.3250 $lvl=1
*|S (net104:24 3.2700 3.3250) // $llx=3.2700 $lly=3.3250 $urx=3.2700 $ury=3.3250 $lvl=1
*|S (net104:25 2.4100 3.3250) // $llx=2.4100 $lly=3.3250 $urx=2.4100 $ury=3.3250 $lvl=1
*|S (net104:26 2.2650 3.3250) // $llx=2.2650 $lly=3.3250 $urx=2.2650 $ury=3.3250 $lvl=1
CJ1 Mmp2:d VSS! 1.46937e-18 $lvl=4
CJ2 Mmp3:d VSS! 3.05706e-18 $lvl=4
CJ3 Mmp4@1:s VSS! 3.27734e-18 $lvl=4
CJ4 Mmp4:s VSS! 2.98602e-18 $lvl=4
CJ5 net104:24 VSS! 8.18737e-18 $lvl=1
CJ6 net104:23 VSS! 7.34127e-18 $lvl=1
CJ7 net104:21 VSS! 5.39524e-18 $lvl=1
CJ8 net104:26 VSS! 6.98757e-18 $lvl=1
CJ9 net104:16 VSS! 6.70515e-18 $lvl=2
CJ10 net104:20 VSS! 3.65287e-18 $lvl=2
CJ11 net104:11 VSS! 9.29243e-18 $lvl=2
CJ12 net104:15 VSS! 6.54615e-18 $lvl=2
CJ13 net104:6 VSS! 4.64189e-18 $lvl=2
CJ14 net104:10 VSS! 4.89332e-18 $lvl=2
CJ15 net104:5 VSS! 5.69022e-18 $lvl=2
CJ16 net104:2 VSS! 1.729e-18 $lvl=2
CJ17 net104:7 VSS! 4.20398e-18 $lvl=2