*
*|DSPF 1.5
*
*|DATE "Wed Jan  8 23:19:10 2025"
*|VENDOR "Cadence Design Systems"
*|PROGRAM "Cadence Quantus Extraction"
*|VERSION "22.1.0-p089 Linux 64 bit - (Thu Jan 19 11:47:08 PST 2023)"
*|DESIGN AOI222X2_HS
*|DIVIDER /
*|DELIMITER :
*|DeviceFingerDelim "@"
*|BUSBIT []
*|GLOBAL_TEMPERATURE 25
*|OPERATING_TEMPERATURE 25

** *VIA_COVERAGE_CODES
** *index FF FS FP FU SF SS SP SU PF PS PP PU UF US UP UU X_by_Y
** * "FF" stands for Full landing and Full coverage
** *0 0 0 0 0 0 0 0 0 0 0 0 0 0 0 0 0
** *1 0 0 0 0 0 0 0 0 0 0 0 0 0 0 0 1 1x1
** *2 0 0 0 0 0 0 0 0 0 0 0 0 0 0 1 0 1x1
** *3 0 0 0 0 0 0 0 0 0 0 0 0 0 1 0 0 1x1
** *4 0 0 0 0 0 0 0 0 0 0 0 0 1 0 0 0 1x1
** *5 0 0 0 0 0 0 0 0 0 0 0 1 0 0 0 0 1x1
** *6 0 0 0 0 0 0 0 0 0 0 1 0 0 0 0 0 1x1
** *7 0 0 0 0 0 0 0 0 0 1 0 0 0 0 0 0 1x1
** *8 0 0 0 0 0 0 0 0 1 0 0 0 0 0 0 0 1x1
** *9 0 0 0 0 0 0 0 1 0 0 0 0 0 0 0 0 1x1
** *10 0 0 0 0 0 0 1 0 0 0 0 0 0 0 0 0 1x1
** *11 0 0 0 0 0 1 0 0 0 0 0 0 0 0 0 0 1x1
** *12 0 0 0 0 1 0 0 0 0 0 0 0 0 0 0 0 1x1
** *13 0 0 0 1 0 0 0 0 0 0 0 0 0 0 0 0 1x1
** *14 0 0 1 0 0 0 0 0 0 0 0 0 0 0 0 0 1x1
** *15 0 1 0 0 0 0 0 0 0 0 0 0 0 0 0 0 1x1
** *16 1 0 0 0 0 0 0 0 0 0 0 0 0 0 0 0 1x1

** *RESISTOR_TYPES
** *1 SHORTING_ELEMENT
** *2 PRES_NG
** *3 PRES_PG
** *4 PRES_NF
** *5 PRES_PF
** *6 TCN_NDIFF
** *7 TCN_PDIFF
** *8 TCN_NFIELD
** *9 TCN_PFIELD
** *10 QUALITY_EXTRACTED
** *11 GCNLAND
** *12 TCNLAND
** *13 DUMMY
** *14 RSD
** *15 BRIDGE

** *RESISTOR_CURRENT_DIRECTION
** *0 HORIZONTAL
** *1 VERTICAL
** *2 45 DEGREE

** QRC_TECH_DIR /vols/wfo_devel/projects/reference_SKY130/tech/sky130_release_0.0.4/quantus/extraction/typical 
** HIERARCHICAL_SPLIT_PINS_DELIMITER '%'
** caps2d version: 10
*
.SUBCKT  AOI222X2_HS A0 A1 B0 B1 C0 C1 Y
*
*Net Section
*
*|GROUND_NET VSS!
*
*LAYER_MAP
*0 none
*1 metal1
*2 li
*3 poly
*4 diff
*5 licon_diff
*6 mcon
*7 licon
*8 FOX

*|NET B0 1.99626e-15
*|P (B0 X 0 2.7750 2.1050) // $llx=2.7750 $lly=2.1050 $urx=2.7750 $ury=2.1050 $lvl=1
*|I (Mmp2:g Mmp2 g X 0 3.1450 3.0150) // $llx=3.1450 $lly=3.0150 $urx=3.1450 $ury=3.0150 $lvl=3
*|I (Mmp2@1:g Mmp2@1 g X 0 2.7150 3.0150) // $llx=2.7150 $lly=3.0150 $urx=2.7150 $ury=3.0150 $lvl=3
*|I (Mmn2:g Mmn2 g X 0 3.1450 0.7750) // $llx=3.1450 $lly=0.7750 $urx=3.1450 $ury=0.7750 $lvl=3
*|I (Mmn2@1:g Mmn2@1 g X 0 2.7150 0.7750) // $llx=2.7150 $lly=0.7750 $urx=2.7150 $ury=0.7750 $lvl=3
*|S (B0:15 3.1450 3.8950) // $llx=3.1450 $lly=3.8950 $urx=3.1450 $ury=3.8950 $lvl=3
*|S (B0:16 3.1450 1.9500) // $llx=3.1450 $lly=1.9500 $urx=3.1450 $ury=1.9500 $lvl=3
*|S (B0:17 2.9300 1.9500) // $llx=2.9300 $lly=1.9500 $urx=2.9300 $ury=1.9500 $lvl=3
*|S (B0:18 2.7150 1.9500) // $llx=2.7150 $lly=1.9500 $urx=2.7150 $ury=1.9500 $lvl=3
*|S (B0:19 2.6850 1.7850) // $llx=2.6850 $lly=1.7850 $urx=2.6850 $ury=1.7850 $lvl=3
*|S (B0:20 3.1750 1.7850) // $llx=3.1750 $lly=1.7850 $urx=3.1750 $ury=1.7850 $lvl=3
*|S (B0:21 3.1450 0.2450) // $llx=3.1450 $lly=0.2450 $urx=3.1450 $ury=0.2450 $lvl=3
*|S (B0:22 2.6850 2.1145) // $llx=2.6850 $lly=2.1145 $urx=2.6850 $ury=2.1145 $lvl=3
*|S (B0:23 2.7150 3.8950) // $llx=2.7150 $lly=3.8950 $urx=2.7150 $ury=3.8950 $lvl=3
*|S (B0:24 2.7150 0.2450) // $llx=2.7150 $lly=0.2450 $urx=2.7150 $ury=0.2450 $lvl=3
*|S (B0:25 2.9300 1.9500) // $llx=2.9300 $lly=1.9500 $urx=2.9300 $ury=1.9500 $lvl=2
*|S (B0:26 2.7600 1.9500) // $llx=2.7600 $lly=1.9500 $urx=2.7600 $ury=1.9500 $lvl=2
*|S (B0:27 2.7600 2.7000) // $llx=2.7600 $lly=2.7000 $urx=2.7600 $ury=2.7000 $lvl=1
*|S (B0:28 2.7600 1.9500) // $llx=2.7600 $lly=1.9500 $urx=2.7600 $ury=1.9500 $lvl=1
*|S (B0:29 2.7600 1.4600) // $llx=2.7600 $lly=1.4600 $urx=2.7600 $ury=1.4600 $lvl=1
CC1 Mmn2@1:g VSS! 4.43236e-18 $lvl=3
CC2 Mmn2:g VSS! 2.80127e-18 $lvl=3
CC3 B0:15 VSS! 3.29287e-18 $lvl=3
CC4 B0:23 VSS! 1.75492e-18 $lvl=3
CC5 B0:25 VSS! 1.61656e-17 $lvl=2
CC6 B0:27 VSS! 2.30794e-17 $lvl=1
CC7 B0:29 VSS! 1.52449e-17 $lvl=1
CC8 B0:26 VSS! 9.11645e-18 $lvl=2
CC9 B0:17 VSS! 3.22202e-17 $lvl=3
CC10 B0:25 net134:5 8.08443e-18 $lvl1=2 $lvl2=2
CC11 B0:17 net134 7.03548e-18 $lvl1=3 $lvl2=2
CC12 B0:27 net134:5 5.84069e-18 $lvl1=1 $lvl2=2
CC13 B0:17 net134:5 5.17132e-18 $lvl1=3 $lvl2=2
CC14 B0:26 net134:5 3.80757e-18 $lvl1=2 $lvl2=2
CC15 B0:25 net134 2.51092e-18 $lvl1=2 $lvl2=2
CC16 B0:17 Mmp2:d 2.07841e-18 $lvl1=3 $lvl2=4
CC17 B0:27 net134:34 1.45366e-18 $lvl1=1 $lvl2=1
CC18 B0:17 net134:10 1.12327e-18 $lvl1=3 $lvl2=2
CC19 B0:23 net134 2.50974e-16 $lvl1=3 $lvl2=2
CC20 B0:27 net134 1.20965e-17 $lvl1=1 $lvl2=2
CC21 B0:15 net134 2.48326e-16 $lvl1=3 $lvl2=2
CC22 B0:29 net151 3.70117e-18 $lvl1=1 $lvl2=2
CC23 B0:17 net151 2.77923e-18 $lvl1=3 $lvl2=2
CC24 B0:25 net151 1.60765e-18 $lvl1=2 $lvl2=2
CC25 B0:17 net151:5 1.31625e-18 $lvl1=3 $lvl2=2
CC26 B0:29 net151:5 9.80827e-19 $lvl1=1 $lvl2=2
CC27 B0:26 net151 9.78781e-19 $lvl1=2 $lvl2=2
CC28 B0:25 net151:5 9.50184e-19 $lvl1=2 $lvl2=2
CC29 Mmn2@1:g net151 1.27501e-16 $lvl1=3 $lvl2=2
CC30 Mmn2:g net151:5 1.29228e-16 $lvl1=3 $lvl2=2
CC31 B0:27 net126:16 9.93337e-18 $lvl1=1 $lvl2=2
CC32 B0:25 net126:25 6.59756e-18 $lvl1=2 $lvl2=2
CC33 B0:27 net126:38 6.15147e-18 $lvl1=1 $lvl2=1
CC34 B0:27 net126:20 5.33096e-18 $lvl1=1 $lvl2=2
CC35 B0:17 net126:16 5.28655e-18 $lvl1=3 $lvl2=2
CC36 B0:25 net126:20 5.00906e-18 $lvl1=2 $lvl2=2
CC37 B0:17 net126:21 4.15267e-18 $lvl1=3 $lvl2=2
CC38 B0:17 net126:20 3.90729e-18 $lvl1=3 $lvl2=2
CC39 B0:17 net126:25 3.67899e-18 $lvl1=3 $lvl2=2
CC40 B0:27 net126:21 3.2864e-18 $lvl1=1 $lvl2=2
CC41 B0:26 net126:20 3.08122e-18 $lvl1=2 $lvl2=2
CC42 B0:27 net126:11 2.70527e-18 $lvl1=1 $lvl2=2
CC43 B0:25 net126:21 2.04217e-18 $lvl1=2 $lvl2=2
CC44 B0:25 net126:16 1.82252e-18 $lvl1=2 $lvl2=2
CC45 B0:27 net126:25 1.70155e-18 $lvl1=1 $lvl2=2
CC46 B0:17 Mmp2@1:s 1.64442e-18 $lvl1=3 $lvl2=4
CC47 B0:27 net126:15 1.58509e-18 $lvl1=1 $lvl2=2
CC48 B0:17 net126:11 1.35192e-18 $lvl1=3 $lvl2=2
CC49 B0:27 net126:17 1.30688e-18 $lvl1=1 $lvl2=2
CC50 B0:23 net126:11 1.29214e-18 $lvl1=3 $lvl2=2
CC51 B0:26 net126:16 1.09895e-18 $lvl1=2 $lvl2=2
CC52 B0:17 Mmp2:s 1.08536e-18 $lvl1=3 $lvl2=4
CC53 B0:17 net126:15 1.03179e-18 $lvl1=3 $lvl2=2
CC54 B0:27 net126:40 9.319e-19 $lvl1=1 $lvl2=1
CC55 B0:25 net126:11 8.71698e-19 $lvl1=2 $lvl2=2
CC56 B0:25 net126:15 8.07914e-19 $lvl1=2 $lvl2=2
CC57 B0:27 net126:32 7.60268e-19 $lvl1=1 $lvl2=1
CC58 B0:23 net126:20 6.92343e-19 $lvl1=3 $lvl2=2
CC59 B0:15 net126:25 6.68381e-19 $lvl1=3 $lvl2=2
CC60 B0:29 net126:36 6.08912e-19 $lvl1=1 $lvl2=1
CC61 B0:29 net126:34 6.02223e-19 $lvl1=1 $lvl2=1
CC62 B0:17 Mmp1@1:d 5.60051e-19 $lvl1=3 $lvl2=4
CC63 B0:29 net126:38 5.46226e-19 $lvl1=1 $lvl2=1
CC64 B0:23 net126:21 5.40345e-19 $lvl1=3 $lvl2=2
CC65 B0:27 net126:36 3.18492e-17 $lvl1=1 $lvl2=1
CC66 B0:27 net126:34 1.4775e-17 $lvl1=1 $lvl2=1
CC67 B0:15 net126:21 2.50923e-16 $lvl1=3 $lvl2=2
CC68 B0:23 net126:16 2.53189e-16 $lvl1=3 $lvl2=2
CC69 Mmn2@1:g VSS!:8 8.07423e-18 $lvl1=3 $lvl2=2
CC70 Mmn2:g VSS!:8 7.87228e-18 $lvl1=3 $lvl2=2
CC71 B0:29 VSS!:14 3.7737e-18 $lvl1=1 $lvl2=2
CC72 B0:17 VSS!:14 2.97273e-18 $lvl1=3 $lvl2=2
CC73 Mmn2@1:g VSS!:14 1.30163e-16 $lvl1=3 $lvl2=2
CC74 Mmn2:g VSS!:14 1.303e-16 $lvl1=3 $lvl2=2
CC75 B0:23 VDD!:6 9.43893e-18 $lvl1=3 $lvl2=2
CC76 B0:15 VDD!:6 8.97222e-18 $lvl1=3 $lvl2=2
CC77 B0:27 VDD! 7.32023e-18 $lvl1=1 $lvl2=1
CC78 B0:17 VDD! 5.84122e-18 $lvl1=3 $lvl2=1
CC79 B0:29 VDD! 3.96063e-18 $lvl1=1 $lvl2=1
CC80 B0:27 Y:36 3.77477e-18 $lvl1=1 $lvl2=1
CC81 B0:29 Y:33 1.9201e-17 $lvl1=1 $lvl2=1
CC82 B0:29 Y:36 1.50496e-17 $lvl1=1 $lvl2=1
CC83 B0:29 B1:29 6.47946e-18 $lvl1=1 $lvl2=1
CC84 B0:17 B1:17 6.2683e-18 $lvl1=3 $lvl2=3
CC85 B0:25 B1:27 5.94461e-18 $lvl1=2 $lvl2=1
CC86 B0:25 B1:25 4.19079e-18 $lvl1=2 $lvl2=2
CC87 B0:27 B1:29 4.15655e-18 $lvl1=1 $lvl2=1
CC88 B0:29 B1:27 4.03518e-18 $lvl1=1 $lvl2=1
CC89 B0:25 B1:29 3.0916e-18 $lvl1=2 $lvl2=1
CC90 B0:25 B1:17 2.89585e-18 $lvl1=2 $lvl2=3
CC91 B0:17 B1:23 2.85918e-18 $lvl1=3 $lvl2=3
CC92 Mmn2:g B1:17 2.84928e-18 $lvl1=3 $lvl2=3
CC93 B0:17 B1:25 2.73038e-18 $lvl1=3 $lvl2=2
CC94 B0:29 B1:25 1.54207e-18 $lvl1=1 $lvl2=2
CC95 B0:17 B1:27 1.23779e-18 $lvl1=3 $lvl2=1
CC96 B0:27 B1:27 1.71297e-17 $lvl1=1 $lvl2=1
ReC39 B0:27 B0 0.286058 $metal1  $L=0.595 $W=0.260000 $SI_W=0.26 $TYPE=10 $DIR=1 $LLX=2.630000 $LLY=2.105000 $URX=2.890000 $URY=2.700000 $lvl=1
ReC40 B0 B0:28 0.074519 $metal1  $L=0.155 $W=0.260000 $SI_W=0.26 $TYPE=10 $DIR=1 $LLX=2.645000 $LLY=1.950000 $URX=2.905000 $URY=2.105000 $lvl=1
ReC41 B0:28 B0:29 0.235577 $metal1  $L=0.49 $W=0.260000 $SI_W=0.26 $TYPE=10 $DIR=1 $LLX=2.630000 $LLY=1.460000 $URX=2.890000 $URY=1.950000 $lvl=1
RfC42 B0:25 B0:26 12.800000 $li  $L=0.17 $W=0.170000 $SI_W=0.17 $TYPE=10 $DIR=0 $LLX=2.760000 $LLY=1.865000 $URX=2.930000 $URY=2.035000 $lvl=2
RgC43 B0:15 Mmp2:g 282.773346 $poly  $L=0.88 $W=0.150000 $SI_W=0.15 $TYPE=10 $DIR=1 $LLX=3.070000 $LLY=3.015000 $URX=3.220000 $URY=3.895000 $lvl=3
RgC44 Mmp2:g B0:16 331.020203 $poly  $L=1.06475 $W=0.150000 $SI_W=0.15 $TYPE=10 $DIR=1 $LLX=3.070000 $LLY=1.950000 $URX=3.220000 $URY=3.015000 $lvl=3
RgC45 B0:16 B0:17 31.439547 $poly  $L=0.21525 $W=0.330000 $SI_W=0.33 $TYPE=10 $DIR=0 $LLX=2.930000 $LLY=1.785000 $URX=3.145000 $URY=2.115000 $lvl=3
RgC46 B0:17 B0:18 31.366514 $poly  $L=0.21475 $W=0.330000 $SI_W=0.33 $TYPE=10 $DIR=0 $LLX=2.715000 $LLY=1.785000 $URX=2.930000 $URY=2.115000 $lvl=3
RgC47 B0:18 B0:19 37.880966 $poly  $L=0.16475 $W=0.210000 $SI_W=0.21 $TYPE=10 $DIR=1 $LLX=2.580000 $LLY=1.785000 $URX=2.790000 $URY=1.950000 $lvl=3
RgC48 B0:19 Mmn2@1:g 324.604034 $poly  $L=1.01 $W=0.150000 $SI_W=0.15 $TYPE=10 $DIR=1 $LLX=2.640000 $LLY=0.775000 $URX=2.790000 $URY=1.785000 $lvl=3
RgC49 B0:16 B0:20 37.880966 $poly  $L=0.16475 $W=0.210000 $SI_W=0.21 $TYPE=10 $DIR=1 $LLX=3.070000 $LLY=1.785000 $URX=3.280000 $URY=1.950000 $lvl=3
RgC50 B0:20 Mmn2:g 324.604034 $poly  $L=1.01 $W=0.150000 $SI_W=0.15 $TYPE=10 $DIR=1 $LLX=3.070000 $LLY=0.775000 $URX=3.220000 $URY=1.785000 $lvl=3
RgC51 Mmn2:g B0:21 170.306671 $poly  $L=0.53 $W=0.150000 $SI_W=0.15 $TYPE=10 $DIR=1 $LLX=3.070000 $LLY=0.245000 $URX=3.220000 $URY=0.775000 $lvl=3
RgC52 B0:18 B0:22 37.766205 $poly  $L=0.16425 $W=0.210000 $SI_W=0.21 $TYPE=10 $DIR=1 $LLX=2.580000 $LLY=1.950500 $URX=2.790000 $URY=2.114500 $lvl=3
RgC53 B0:22 Mmp2@1:g 289.257385 $poly  $L=0.9 $W=0.150000 $SI_W=0.15 $TYPE=10 $DIR=1 $LLX=2.640000 $LLY=2.114500 $URX=2.790000 $URY=3.014500 $lvl=3
RgC54 Mmp2@1:g B0:23 282.773346 $poly  $L=0.88 $W=0.150000 $SI_W=0.15 $TYPE=10 $DIR=1 $LLX=2.640000 $LLY=3.015000 $URX=2.790000 $URY=3.895000 $lvl=3
RgC55 Mmn2@1:g B0:24 170.306671 $poly  $L=0.53 $W=0.150000 $SI_W=0.15 $TYPE=10 $DIR=1 $LLX=2.640000 $LLY=0.245000 $URX=2.790000 $URY=0.775000 $lvl=3
RjC56 B0:26 B0:28 152.000000 $mcon  $L=0.17 $W=0.17 $A=0.0289 $VC=0 $SAVL=0 $SAVC=0 $SI_A=0.0289 $COVER_DIR=0 $LLX=0.000000 $LLY=0.000000 $URX=0.170000 $URY=0.170000 $lvl=6
RiC57 B0:17 B0:25 7.500000 $licon  $A=0.0578 $VC=0 $SAVL=0 $SAVC=0 $SI_A=0.0578 $COVER_DIR=0 $LLX=0.000000 $LLY=0.000000 $URX=-0.057800 $URY=-2.000000 $lvl=7
*
*|NET net147 1.55534e-15
*|I (Mmn1:s Mmn1 s X 0 1.2595 0.7750) // $llx=1.2595 $lly=0.7750 $urx=1.2595 $ury=0.7750 $lvl=4
*|I (Mmn1@1:s Mmn1@1 s X 0 1.8405 0.7750) // $llx=1.8405 $lly=0.7750 $urx=1.8405 $ury=0.7750 $lvl=4
*|I (Mmn0:d Mmn0 d X 0 0.3995 0.7750) // $llx=0.3995 $lly=0.7750 $urx=0.3995 $ury=0.7750 $lvl=4
*|I (Mmn0@1:d Mmn0@1 d X 0 0.9805 0.7750) // $llx=0.9805 $lly=0.7750 $urx=0.9805 $ury=0.7750 $lvl=4
*|S (net147 0.2600 1.1550) // $llx=0.2600 $lly=1.1550 $urx=0.2600 $ury=1.1550 $lvl=2
*|S (net147:3 0.2600 0.7750) // $llx=0.2600 $lly=0.7750 $urx=0.2600 $ury=0.7750 $lvl=2
*|S (net147:4 0.2600 0.5600) // $llx=0.2600 $lly=0.5600 $urx=0.2600 $ury=0.5600 $lvl=2
*|S (net147:5 1.1200 1.1550) // $llx=1.1200 $lly=1.1550 $urx=1.1200 $ury=1.1550 $lvl=2
*|S (net147:7 1.1200 0.7750) // $llx=1.1200 $lly=0.7750 $urx=1.1200 $ury=0.7750 $lvl=2
*|S (net147:8 1.1200 0.5600) // $llx=1.1200 $lly=0.5600 $urx=1.1200 $ury=0.5600 $lvl=2
*|S (net147:9 1.9800 1.1550) // $llx=1.9800 $lly=1.1550 $urx=1.9800 $ury=1.1550 $lvl=2
*|S (net147:11 1.9800 0.7750) // $llx=1.9800 $lly=0.7750 $urx=1.9800 $ury=0.7750 $lvl=2
*|S (net147:12 1.9800 0.5600) // $llx=1.9800 $lly=0.5600 $urx=1.9800 $ury=0.5600 $lvl=2
*|S (net147:13 1.9800 0.5600) // $llx=1.9800 $lly=0.5600 $urx=1.9800 $ury=0.5600 $lvl=1
*|S (net147:14 1.8650 0.4850) // $llx=1.8650 $lly=0.4850 $urx=1.8650 $ury=0.4850 $lvl=1
*|S (net147:15 1.1200 0.5600) // $llx=1.1200 $lly=0.5600 $urx=1.1200 $ury=0.5600 $lvl=1
*|S (net147:16 1.0050 0.4850) // $llx=1.0050 $lly=0.4850 $urx=1.0050 $ury=0.4850 $lvl=1
*|S (net147:17 0.3745 0.4850) // $llx=0.3745 $lly=0.4850 $urx=0.3745 $ury=0.4850 $lvl=1
*|S (net147:18 0.2600 0.5600) // $llx=0.2600 $lly=0.5600 $urx=0.2600 $ury=0.5600 $lvl=1
CJ1 Mmn0:d VSS! 1.32072e-18 $lvl=4
CJ2 Mmn1@1:s VSS! 1.66342e-18 $lvl=4
CJ3 Mmn1:s VSS! 1.68636e-18 $lvl=4
CJ4 net147:9 VSS! 1.71477e-17 $lvl=2
CJ5 net147:5 VSS! 1.28515e-17 $lvl=2
CJ6 net147:18 VSS! 9.20876e-18 $lvl=1
CJ7 net147:16 VSS! 7.18383e-18 $lvl=1
CJ8 net147:14 VSS! 8.13648e-18 $lvl=1
CJ9 net147:4 VSS! 3.58191e-18 $lvl=2
CJ10 net147:8 VSS! 2.10141e-18 $lvl=2
CJ11 net147:12 VSS! 1.6436e-18 $lvl=2
CJ12 net147 VSS! 2.52159e-17 $lvl=2
CJ13 Mmn1@1:s net151 5.10098e-18 $lvl1=4 $lvl2=2
CJ14 net147:9 Mmn2@1:d 4.36466e-18 $lvl1=2 $lvl2=4
CJ15 net147:12 net151 4.26749e-18 $lvl1=2 $lvl2=2
CJ16 net147:12 net151:4 2.6882e-18 $lvl1=2 $lvl2=2
CJ17 net147:9 net151 4.27879e-17 $lvl1=2 $lvl2=2
CJ18 net147:14 net151:17 1.74312e-17 $lvl1=1 $lvl2=1
CJ19 net147 VSS!:20 4.99443e-18 $lvl1=2 $lvl2=1
CJ20 net147:16 VSS!:5 3.95517e-18 $lvl1=1 $lvl2=2
CJ21 net147:16 VSS!:9 3.82748e-18 $lvl1=1 $lvl2=2
CJ22 net147:8 VSS!:9 3.10406e-18 $lvl1=2 $lvl2=2
CJ23 net147:14 VSS!:5 2.92655e-18 $lvl1=1 $lvl2=2
CJ24 net147 VSS!:6 2.88096e-18 $lvl1=2 $lvl2=4
CJ25 net147:12 VSS!:19 2.75354e-18 $lvl1=2 $lvl2=1
CJ26 net147:9 VSS!:5 2.63756e-18 $lvl1=2 $lvl2=2
CJ27 net147:5 VSS!:5 2.53809e-18 $lvl1=2 $lvl2=2
CJ28 net147:4 VSS!:17 2.4858e-18 $lvl1=2 $lvl2=2
CJ29 net147:8 VSS!:19 2.47051e-18 $lvl1=2 $lvl2=1
CJ30 net147:18 VSS!:10 2.24671e-18 $lvl1=1 $lvl2=2
CJ31 net147:18 VSS!:9 2.19011e-18 $lvl1=1 $lvl2=2
CJ32 net147:12 VSS!:5 1.9814e-18 $lvl1=2 $lvl2=2
CJ33 net147:12 VSS!:8 1.87691e-18 $lvl1=2 $lvl2=2
CJ34 net147:9 VSS!:19 1.77442e-18 $lvl1=2 $lvl2=1
CJ35 net147:8 VSS!:5 1.76471e-18 $lvl1=2 $lvl2=2
CJ36 net147:9 VSS!:6 1.72559e-18 $lvl1=2 $lvl2=4
CJ37 net147 VSS!:5 1.6728e-18 $lvl1=2 $lvl2=2
CJ38 net147:18 VSS!:5 1.64583e-18 $lvl1=1 $lvl2=2
CJ39 net147:4 VSS!:20 1.50049e-18 $lvl1=2 $lvl2=1
CJ40 Mmn0:d VSS!:9 1.49382e-18 $lvl1=4 $lvl2=2
CJ41 Mmn1:s VSS!:9 1.3624e-18 $lvl1=4 $lvl2=2
CJ42 Mmn1@1:s VSS!:8 1.32441e-18 $lvl1=4 $lvl2=2
CJ43 net147:5 VSS!:19 1.28489e-18 $lvl1=2 $lvl2=1
CJ44 net147:16 VSS!:20 1.22634e-18 $lvl1=1 $lvl2=1
CJ45 net147 VSS!:19 1.17899e-18 $lvl1=2 $lvl2=1
CJ46 Mmn1@1:s VSS!:9 1.11286e-18 $lvl1=4 $lvl2=2
CJ47 net147:4 VSS!:10 1.08609e-18 $lvl1=2 $lvl2=2
CJ48 Mmn0:d VSS!:17 1.07955e-18 $lvl1=4 $lvl2=2
CJ49 net147:14 VSS!:8 1.06157e-18 $lvl1=1 $lvl2=2
CJ50 net147:12 VSS!:9 1.04473e-18 $lvl1=2 $lvl2=2
CJ51 net147:4 VSS!:19 9.58709e-19 $lvl1=2 $lvl2=1
CJ52 net147 Mmn0:s 9.35184e-19 $lvl1=2 $lvl2=4
CJ53 net147:9 VSS!:8 1.47512e-17 $lvl1=2 $lvl2=2
CJ54 net147:18 VSS!:20 2.57635e-17 $lvl1=1 $lvl2=1
CJ55 net147:9 VSS!:9 8.21007e-18 $lvl1=2 $lvl2=2
CJ56 net147:16 VSS!:19 7.60227e-17 $lvl1=1 $lvl2=1
CJ57 net147:16 VSS!:17 7.93809e-18 $lvl1=1 $lvl2=2
CJ58 net147:18 VSS!:19 3.6273e-17 $lvl1=1 $lvl2=1
CJ59 net147:8 VSS!:17 8.50083e-18 $lvl1=2 $lvl2=2
CJ60 net147 VSS!:17 5.7527e-17 $lvl1=2 $lvl2=2
CJ61 net147:14 VSS!:19 5.68916e-17 $lvl1=1 $lvl2=1
CJ62 net147:5 VSS!:9 2.02854e-17 $lvl1=2 $lvl2=2
CJ63 net147:18 VSS!:17 8.91764e-18 $lvl1=1 $lvl2=2
CJ64 net147 VSS!:9 1.39314e-17 $lvl1=2 $lvl2=2
CJ65 net147 VSS!:10 1.20378e-17 $lvl1=2 $lvl2=2
CJ66 net147:5 VSS!:17 4.92874e-17 $lvl1=2 $lvl2=2
ReJ222 net147:13 net147:14 0.076068 $metal1  $L=0.1145 $W=0.290000 $SI_W=0.29 $TYPE=10 $DIR=0 $LLX=1.865500 $LLY=0.415000 $URX=1.980000 $URY=0.705000 $lvl=1
ReJ223 net147:14 net147:15 0.612177 $metal1  $L=0.745 $W=0.140000 $SI_W=0.14 $TYPE=10 $DIR=0 $LLX=1.120000 $LLY=0.415000 $URX=1.865000 $URY=0.555000 $lvl=1
ReJ224 net147:15 net147:16 0.076068 $metal1  $L=0.1145 $W=0.290000 $SI_W=0.29 $TYPE=10 $DIR=0 $LLX=1.005500 $LLY=0.415000 $URX=1.120000 $URY=0.705000 $lvl=1
ReJ225 net147:16 net147:17 0.562716 $metal1  $L=0.63 $W=0.140000 $SI_W=0.14 $TYPE=10 $DIR=0 $LLX=0.375000 $LLY=0.415000 $URX=1.005000 $URY=0.555000 $lvl=1
ReJ226 net147:17 net147:18 0.076068 $metal1  $L=0.1145 $W=0.290000 $SI_W=0.29 $TYPE=10 $DIR=0 $LLX=0.260000 $LLY=0.340000 $URX=0.374500 $URY=0.630000 $lvl=1
RfJ227 net147 net147:3 28.611765 $li  $L=0.38 $W=0.170000 $SI_W=0.17 $TYPE=10 $DIR=1 $LLX=0.175000 $LLY=0.775000 $URX=0.345000 $URY=1.155000 $lvl=2
RfJ228 net147:3 net147:4 16.188236 $li  $L=0.215 $W=0.170000 $SI_W=0.17 $TYPE=10 $DIR=1 $LLX=0.175000 $LLY=0.560000 $URX=0.345000 $URY=0.775000 $lvl=2
RfJ229 net147:5 net147:7 28.611765 $li  $L=0.38 $W=0.170000 $SI_W=0.17 $TYPE=10 $DIR=1 $LLX=1.035000 $LLY=0.775000 $URX=1.205000 $URY=1.155000 $lvl=2
RfJ230 net147:7 net147:8 16.188236 $li  $L=0.215 $W=0.170000 $SI_W=0.17 $TYPE=10 $DIR=1 $LLX=1.035000 $LLY=0.560000 $URX=1.205000 $URY=0.775000 $lvl=2
RfJ231 net147:9 net147:11 28.611765 $li  $L=0.38 $W=0.170000 $SI_W=0.17 $TYPE=10 $DIR=1 $LLX=1.895000 $LLY=0.775000 $URX=2.065000 $URY=1.155000 $lvl=2
RfJ232 net147:11 net147:12 16.188236 $li  $L=0.215 $W=0.170000 $SI_W=0.17 $TYPE=10 $DIR=1 $LLX=1.895000 $LLY=0.560000 $URX=2.065000 $URY=0.775000 $lvl=2
RhJ233 Mmn0:d net147:3 7.500000 $licon_diff  $A=0.0578 $VC=0 $SAVL=0 $SAVC=0 $SI_A=0.0578 $COVER_DIR=0 $LLX=0.000000 $LLY=0.000000 $URX=-0.057800 $URY=-2.000000 $lvl=5
RhJ234 Mmn1:s net147:7 7.500000 $licon_diff  $A=0.0578 $VC=0 $SAVL=0 $SAVC=0 $SI_A=0.0578 $COVER_DIR=0 $LLX=0.000000 $LLY=0.000000 $URX=-0.057800 $URY=-2.000000 $lvl=5
RhJ235 Mmn1@1:s net147:11 7.500000 $licon_diff  $A=0.0578 $VC=0 $SAVL=0 $SAVC=0 $SI_A=0.0578 $COVER_DIR=0 $LLX=0.000000 $LLY=0.000000 $URX=-0.057800 $URY=-2.000000 $lvl=5
RjJ236 net147:12 net147:13 152.000000 $mcon  $L=0.17 $W=0.17 $A=0.0289 $VC=0 $SAVL=0 $SAVC=0 $SI_A=0.0289 $COVER_DIR=0 $LLX=0.000000 $LLY=0.000000 $URX=0.170000 $URY=0.170000 $lvl=6
RjJ237 net147:8 net147:15 152.000000 $mcon  $L=0.17 $W=0.17 $A=0.0289 $VC=0 $SAVL=0 $SAVC=0 $SI_A=0.0289 $COVER_DIR=0 $LLX=0.000000 $LLY=0.000000 $URX=0.170000 $URY=0.170000 $lvl=6
RjJ238 net147:4 net147:18 152.000000 $mcon  $L=0.17 $W=0.17 $A=0.0289 $VC=0 $SAVL=0 $SAVC=0 $SI_A=0.0289 $COVER_DIR=0 $LLX=0.000000 $LLY=0.000000 $URX=0.170000 $URY=0.170000 $lvl=6
RmwJ239 Mmn0@1:d Mmn1:s 0.001000 $diff $W=1000000 $SI_W=1000000 $TYPE=1 $DIR=0
*
*|NET A1 2.04306e-15
*|P (A1 X 0 1.3950 2.0650) // $llx=1.3950 $lly=2.0650 $urx=1.3950 $ury=2.0650 $lvl=1
*|I (Mmp1:g Mmp1 g X 0 1.3350 3.0150) // $llx=1.3350 $lly=3.0150 $urx=1.3350 $ury=3.0150 $lvl=3
*|I (Mmp1@1:g Mmp1@1 g X 0 1.7650 3.0150) // $llx=1.7650 $lly=3.0150 $urx=1.7650 $ury=3.0150 $lvl=3
*|I (Mmn1:g Mmn1 g X 0 1.3350 0.7750) // $llx=1.3350 $lly=0.7750 $urx=1.3350 $ury=0.7750 $lvl=3
*|I (Mmn1@1:g Mmn1@1 g X 0 1.7650 0.7750) // $llx=1.7650 $lly=0.7750 $urx=1.7650 $ury=0.7750 $lvl=3
*|S (A1:15 1.7650 3.8950) // $llx=1.7650 $lly=3.8950 $urx=1.7650 $ury=3.8950 $lvl=3
*|S (A1:16 1.7650 1.4300) // $llx=1.7650 $lly=1.4300 $urx=1.7650 $ury=1.4300 $lvl=3
*|S (A1:17 1.5500 1.4300) // $llx=1.5500 $lly=1.4300 $urx=1.5500 $ury=1.4300 $lvl=3
*|S (A1:18 1.3350 1.4300) // $llx=1.3350 $lly=1.4300 $urx=1.3350 $ury=1.4300 $lvl=3
*|S (A1:19 1.3050 1.2650) // $llx=1.3050 $lly=1.2650 $urx=1.3050 $ury=1.2650 $lvl=3
*|S (A1:20 1.7950 1.2650) // $llx=1.7950 $lly=1.2650 $urx=1.7950 $ury=1.2650 $lvl=3
*|S (A1:21 1.7650 0.2450) // $llx=1.7650 $lly=0.2450 $urx=1.7650 $ury=0.2450 $lvl=3
*|S (A1:22 1.3050 1.5945) // $llx=1.3050 $lly=1.5945 $urx=1.3050 $ury=1.5945 $lvl=3
*|S (A1:23 1.3350 3.8950) // $llx=1.3350 $lly=3.8950 $urx=1.3350 $ury=3.8950 $lvl=3
*|S (A1:24 1.3350 0.2450) // $llx=1.3350 $lly=0.2450 $urx=1.3350 $ury=0.2450 $lvl=3
*|S (A1:25 1.5500 1.4300) // $llx=1.5500 $lly=1.4300 $urx=1.5500 $ury=1.4300 $lvl=2
*|S (A1:26 1.3800 1.4300) // $llx=1.3800 $lly=1.4300 $urx=1.3800 $ury=1.4300 $lvl=2
*|S (A1:27 1.3800 2.6600) // $llx=1.3800 $lly=2.6600 $urx=1.3800 $ury=2.6600 $lvl=1
*|S (A1:28 1.3800 1.4300) // $llx=1.3800 $lly=1.4300 $urx=1.3800 $ury=1.4300 $lvl=1
*|S (A1:29 1.3800 1.2850) // $llx=1.3800 $lly=1.2850 $urx=1.3800 $ury=1.2850 $lvl=1
CB1 Mmn1@1:g VSS! 3.35295e-18 $lvl=3
CB2 Mmn1:g VSS! 3.2069e-18 $lvl=3
CB3 A1:15 VSS! 2.93597e-18 $lvl=3
CB4 A1:23 VSS! 3.34712e-18 $lvl=3
CB5 A1:25 VSS! 1.53728e-17 $lvl=2
CB6 A1:28 VSS! 1.31748e-17 $lvl=1
CB7 A1:27 VSS! 1.46019e-17 $lvl=1
CB8 A1:26 VSS! 6.81075e-18 $lvl=2
CB9 A1:17 VSS! 3.85697e-17 $lvl=3
CB10 A1:27 net126:6 9.63447e-18 $lvl1=1 $lvl2=2
CB11 A1:27 net126:10 6.34181e-18 $lvl1=1 $lvl2=2
CB12 A1:27 net126:11 4.3128e-18 $lvl1=1 $lvl2=2
CB13 A1:27 net126:41 3.02212e-18 $lvl1=1 $lvl2=1
CB14 A1:27 net126:15 2.83187e-18 $lvl1=1 $lvl2=2
CB15 A1:27 net126:36 2.17627e-18 $lvl1=1 $lvl2=1
CB16 A1:17 net126:15 1.15674e-18 $lvl1=3 $lvl2=2
CB17 A1:15 net126:16 1.04889e-18 $lvl1=3 $lvl2=2
CB18 A1:27 net126:16 1.03324e-18 $lvl1=1 $lvl2=2
CB19 A1:17 net126:11 9.93229e-19 $lvl1=3 $lvl2=2
CB20 A1:15 net126:15 9.7884e-19 $lvl1=3 $lvl2=2
CB21 A1:28 net126:38 9.35957e-19 $lvl1=1 $lvl2=1
CB22 A1:25 net126:15 9.32495e-19 $lvl1=2 $lvl2=2
CB23 A1:28 net126:40 8.97347e-19 $lvl1=1 $lvl2=1
CB24 A1:15 net126:6 8.67452e-19 $lvl1=3 $lvl2=2
CB25 A1:23 net126:10 8.25912e-19 $lvl1=3 $lvl2=2
CB26 A1:23 net126:11 7.74365e-19 $lvl1=3 $lvl2=2
CB27 A1:27 net126:7 7.71805e-19 $lvl1=1 $lvl2=2
CB28 A1:25 net126:11 7.40119e-19 $lvl1=2 $lvl2=2
CB29 A1:28 net126:15 6.80277e-19 $lvl1=1 $lvl2=2
CB30 A1:27 net126:20 6.59771e-19 $lvl1=1 $lvl2=2
CB31 A1:28 net126:11 6.22772e-19 $lvl1=1 $lvl2=2
CB32 A1:17 net126:10 5.93563e-19 $lvl1=3 $lvl2=2
CB33 A1:28 net126:10 5.93428e-19 $lvl1=1 $lvl2=2
CB34 A1:28 net126:36 5.20779e-19 $lvl1=1 $lvl2=1
CB35 A1:15 net126:11 2.58423e-16 $lvl1=3 $lvl2=2
CB36 A1:27 net126:38 1.46676e-17 $lvl1=1 $lvl2=1
CB37 A1:23 net126:6 2.48624e-16 $lvl1=3 $lvl2=2
CB38 A1:27 net126:40 2.9722e-17 $lvl1=1 $lvl2=1
CB39 A1:28 net147:16 5.3293e-18 $lvl1=1 $lvl2=1
CB40 A1:26 net147:5 4.43774e-18 $lvl1=2 $lvl2=2
CB41 A1:28 net147:5 3.08143e-18 $lvl1=1 $lvl2=2
CB42 A1:17 Mmn1@1:s 1.70746e-18 $lvl1=3 $lvl2=4
CB43 A1:28 net147:18 1.479e-18 $lvl1=1 $lvl2=1
CB44 A1:17 Mmn1:s 1.31731e-18 $lvl1=3 $lvl2=4
CB45 A1:28 net147:9 1.06134e-18 $lvl1=1 $lvl2=2
CB46 A1:28 net147:14 9.68212e-19 $lvl1=1 $lvl2=1
CB47 A1:27 net147:16 8.01359e-19 $lvl1=1 $lvl2=1
CB48 A1:25 net147:5 9.95208e-18 $lvl1=2 $lvl2=2
CB49 Mmn1@1:g net147:9 1.28046e-16 $lvl1=3 $lvl2=2
CB50 A1:17 net147:5 8.60358e-18 $lvl1=3 $lvl2=2
CB51 A1:25 net147:9 1.23746e-17 $lvl1=2 $lvl2=2
CB52 Mmn1:g net147:5 1.26079e-16 $lvl1=3 $lvl2=2
CB53 A1:17 net147:9 1.00494e-17 $lvl1=3 $lvl2=2
CB54 Mmn1:g VSS!:9 8.88561e-18 $lvl1=3 $lvl2=2
CB55 Mmn1@1:g VSS!:9 7.54977e-18 $lvl1=3 $lvl2=2
CB56 A1:28 VSS!:19 2.3597e-18 $lvl1=1 $lvl2=1
CB57 A1:25 VSS!:17 1.95871e-18 $lvl1=2 $lvl2=2
CB58 A1:28 VSS!:17 1.90204e-18 $lvl1=1 $lvl2=2
CB59 A1:15 VDD!:6 9.50217e-18 $lvl1=3 $lvl2=2
CB60 A1:27 VDD! 9.43645e-18 $lvl1=1 $lvl2=1
CB61 A1:23 VDD!:6 6.83287e-18 $lvl1=3 $lvl2=2
CB62 A1:28 VDD! 6.18319e-18 $lvl1=1 $lvl2=1
CB63 A1:27 VDD!:3 3.5355e-18 $lvl1=1 $lvl2=2
CB64 A1:27 VDD!:14 3.45784e-18 $lvl1=1 $lvl2=1
CB65 A1:17 VDD!:8 2.48285e-18 $lvl1=3 $lvl2=2
CB66 A1:17 VDD! 2.08651e-18 $lvl1=3 $lvl2=1
CB67 A1:25 VDD!:8 1.75759e-18 $lvl1=2 $lvl2=2
CB68 A1:15 VDD!:8 2.57261e-16 $lvl1=3 $lvl2=2
CB69 A1:27 VDD!:8 1.99977e-17 $lvl1=1 $lvl2=2
CB70 A1:23 VDD!:8 2.5423e-16 $lvl1=3 $lvl2=2
CB71 A1:25 Y:36 6.66858e-18 $lvl1=2 $lvl2=1
CB72 A1:26 Y:1 5.1536e-18 $lvl1=2 $lvl2=2
CB73 A1:27 Y:36 4.14784e-18 $lvl1=1 $lvl2=1
CB74 A1:17 Mmn1:d 2.47213e-18 $lvl1=3 $lvl2=4
CB75 A1:28 Y:1 1.78576e-18 $lvl1=1 $lvl2=2
CB76 A1:26 Y:36 1.71155e-18 $lvl1=2 $lvl2=1
CB77 A1:28 Y:2 1.70048e-18 $lvl1=1 $lvl2=2
CB78 A1:17 Y:1 1.45756e-17 $lvl1=3 $lvl2=2
CB79 A1:25 Y:1 1.37459e-17 $lvl1=2 $lvl2=2
CB80 Mmn1:g Y:1 1.28553e-16 $lvl1=3 $lvl2=2
CB81 A1:28 Y:36 3.43977e-17 $lvl1=1 $lvl2=1
CB82 Mmn1@1:g Y:1 1.28591e-16 $lvl1=3 $lvl2=2
CB83 A1:27 B0:27 5.73135e-18 $lvl1=1 $lvl2=1
CB84 A1:28 B0:27 2.41707e-18 $lvl1=1 $lvl2=1
CB85 A1:28 B0:29 2.20008e-18 $lvl1=1 $lvl2=1
CB86 A1:27 B0:29 2.00319e-18 $lvl1=1 $lvl2=1
CB87 A1:17 B0:17 1.6192e-18 $lvl1=3 $lvl2=3
CB88 A1:25 B0:29 1.10459e-18 $lvl1=2 $lvl2=1
ReB20 A1:27 A1 0.286058 $metal1  $L=0.595 $W=0.260000 $SI_W=0.26 $TYPE=10 $DIR=1 $LLX=1.250000 $LLY=2.065000 $URX=1.510000 $URY=2.660000 $lvl=1
ReB21 A1 A1:28 0.305288 $metal1  $L=0.635 $W=0.260000 $SI_W=0.26 $TYPE=10 $DIR=1 $LLX=1.250000 $LLY=1.430000 $URX=1.510000 $URY=2.065000 $lvl=1
ReB22 A1:28 A1:29 0.078804 $metal1  $L=0.145 $W=0.230000 $SI_W=0.23 $TYPE=10 $DIR=1 $LLX=1.265000 $LLY=1.285000 $URX=1.495000 $URY=1.430000 $lvl=1
RfB23 A1:25 A1:26 12.800000 $li  $L=0.17 $W=0.170000 $SI_W=0.17 $TYPE=10 $DIR=0 $LLX=1.380000 $LLY=1.345000 $URX=1.550000 $URY=1.515000 $lvl=2
RgB24 A1:15 Mmp1@1:g 282.773346 $poly  $L=0.88 $W=0.150000 $SI_W=0.15 $TYPE=10 $DIR=1 $LLX=1.690000 $LLY=3.015000 $URX=1.840000 $URY=3.895000 $lvl=3
RgB25 Mmp1@1:g A1:16 498.113525 $poly  $L=1.58475 $W=0.150000 $SI_W=0.15 $TYPE=10 $DIR=1 $LLX=1.690000 $LLY=1.430000 $URX=1.840000 $URY=3.015000 $lvl=3
RgB26 A1:16 A1:17 31.439547 $poly  $L=0.21525 $W=0.330000 $SI_W=0.33 $TYPE=10 $DIR=0 $LLX=1.550000 $LLY=1.265000 $URX=1.765000 $URY=1.595000 $lvl=3
RgB27 A1:17 A1:18 31.366514 $poly  $L=0.21475 $W=0.330000 $SI_W=0.33 $TYPE=10 $DIR=0 $LLX=1.335000 $LLY=1.265000 $URX=1.550000 $URY=1.595000 $lvl=3
RgB28 A1:18 A1:19 37.880966 $poly  $L=0.16475 $W=0.210000 $SI_W=0.21 $TYPE=10 $DIR=1 $LLX=1.200000 $LLY=1.265000 $URX=1.410000 $URY=1.430000 $lvl=3
RgB29 A1:19 Mmn1:g 157.510712 $poly  $L=0.49 $W=0.150000 $SI_W=0.15 $TYPE=10 $DIR=1 $LLX=1.260000 $LLY=0.775000 $URX=1.410000 $URY=1.265000 $lvl=3
RgB30 A1:16 A1:20 37.880966 $poly  $L=0.16475 $W=0.210000 $SI_W=0.21 $TYPE=10 $DIR=1 $LLX=1.690000 $LLY=1.265000 $URX=1.900000 $URY=1.430000 $lvl=3
RgB31 A1:20 Mmn1@1:g 157.510712 $poly  $L=0.49 $W=0.150000 $SI_W=0.15 $TYPE=10 $DIR=1 $LLX=1.690000 $LLY=0.775000 $URX=1.840000 $URY=1.265000 $lvl=3
RgB32 Mmn1@1:g A1:21 170.306671 $poly  $L=0.53 $W=0.150000 $SI_W=0.15 $TYPE=10 $DIR=1 $LLX=1.690000 $LLY=0.245000 $URX=1.840000 $URY=0.775000 $lvl=3
RgB33 A1:18 A1:22 37.766205 $poly  $L=0.16425 $W=0.210000 $SI_W=0.21 $TYPE=10 $DIR=1 $LLX=1.200000 $LLY=1.430500 $URX=1.410000 $URY=1.594500 $lvl=3
RgB34 A1:22 Mmp1:g 456.350708 $poly  $L=1.42 $W=0.150000 $SI_W=0.15 $TYPE=10 $DIR=1 $LLX=1.260000 $LLY=1.594500 $URX=1.410000 $URY=3.014500 $lvl=3
RgB35 Mmp1:g A1:23 282.773346 $poly  $L=0.88 $W=0.150000 $SI_W=0.15 $TYPE=10 $DIR=1 $LLX=1.260000 $LLY=3.015000 $URX=1.410000 $URY=3.895000 $lvl=3
RgB36 Mmn1:g A1:24 170.306671 $poly  $L=0.53 $W=0.150000 $SI_W=0.15 $TYPE=10 $DIR=1 $LLX=1.260000 $LLY=0.245000 $URX=1.410000 $URY=0.775000 $lvl=3
RjB37 A1:26 A1:28 152.000000 $mcon  $L=0.17 $W=0.17 $A=0.0289 $VC=0 $SAVL=0 $SAVC=0 $SI_A=0.0289 $COVER_DIR=0 $LLX=0.000000 $LLY=0.000000 $URX=0.170000 $URY=0.170000 $lvl=6
RiB38 A1:17 A1:25 7.500000 $licon  $A=0.0578 $VC=0 $SAVL=0 $SAVC=0 $SI_A=0.0578 $COVER_DIR=0 $LLX=0.000000 $LLY=0.000000 $URX=-0.057800 $URY=-2.000000 $lvl=7
*
*|NET Y 4.50845e-15
*|P (Y X 0 5.9950 2.1800) // $llx=5.9950 $lly=2.1800 $urx=5.9950 $ury=2.1800 $lvl=1
*|I (Mmp4:d Mmp4 d X 0 5.0305 3.0150) // $llx=5.0305 $lly=3.0150 $urx=5.0305 $ury=3.0150 $lvl=4
*|I (Mmp4@1:d Mmp4@1 d X 0 5.3095 3.0150) // $llx=5.3095 $lly=3.0150 $urx=5.3095 $ury=3.0150 $lvl=4
*|I (Mmp5:d Mmp5 d X 0 5.8905 3.0150) // $llx=5.8905 $lly=3.0150 $urx=5.8905 $ury=3.0150 $lvl=4
*|I (Mmp5@1:d Mmp5@1 d X 0 6.1695 3.0150) // $llx=6.1695 $lly=3.0150 $urx=6.1695 $ury=3.0150 $lvl=4
*|I (Mmn5:d Mmn5 d X 0 5.8905 0.7750) // $llx=5.8905 $lly=0.7750 $urx=5.8905 $ury=0.7750 $lvl=4
*|I (Mmn5@1:d Mmn5@1 d X 0 6.1695 0.7750) // $llx=6.1695 $lly=0.7750 $urx=6.1695 $ury=0.7750 $lvl=4
*|I (Mmn1:d Mmn1 d X 0 1.4105 0.7750) // $llx=1.4105 $lly=0.7750 $urx=1.4105 $ury=0.7750 $lvl=4
*|I (Mmn1@1:d Mmn1@1 d X 0 1.6895 0.7750) // $llx=1.6895 $lly=0.7750 $urx=1.6895 $ury=0.7750 $lvl=4
*|I (Mmn3:d Mmn3 d X 0 3.9295 0.7750) // $llx=3.9295 $lly=0.7750 $urx=3.9295 $ury=0.7750 $lvl=4
*|I (Mmn3@1:d Mmn3@1 d X 0 3.6505 0.7750) // $llx=3.6505 $lly=0.7750 $urx=3.6505 $ury=0.7750 $lvl=4
*|S (Y:1 1.5500 1.1550) // $llx=1.5500 $lly=1.1550 $urx=1.5500 $ury=1.1550 $lvl=2
*|S (Y:2 1.5500 0.8700) // $llx=1.5500 $lly=0.8700 $urx=1.5500 $ury=0.8700 $lvl=2
*|S (Y:4 1.5500 0.7750) // $llx=1.5500 $lly=0.7750 $urx=1.5500 $ury=0.7750 $lvl=2
*|S (Y:5 1.5500 0.3950) // $llx=1.5500 $lly=0.3950 $urx=1.5500 $ury=0.3950 $lvl=2
*|S (Y:6 3.7900 1.1550) // $llx=3.7900 $lly=1.1550 $urx=3.7900 $ury=1.1550 $lvl=2
*|S (Y:7 3.7900 0.8700) // $llx=3.7900 $lly=0.8700 $urx=3.7900 $ury=0.8700 $lvl=2
*|S (Y:9 3.7900 0.7750) // $llx=3.7900 $lly=0.7750 $urx=3.7900 $ury=0.7750 $lvl=2
*|S (Y:10 3.7900 0.3950) // $llx=3.7900 $lly=0.3950 $urx=3.7900 $ury=0.3950 $lvl=2
*|S (Y:11 5.1700 3.7450) // $llx=5.1700 $lly=3.7450 $urx=5.1700 $ury=3.7450 $lvl=2
*|S (Y:12 5.1700 3.0900) // $llx=5.1700 $lly=3.0900 $urx=5.1700 $ury=3.0900 $lvl=2
*|S (Y:14 5.1700 3.0150) // $llx=5.1700 $lly=3.0150 $urx=5.1700 $ury=3.0150 $lvl=2
*|S (Y:15 5.1700 2.2850) // $llx=5.1700 $lly=2.2850 $urx=5.1700 $ury=2.2850 $lvl=2
*|S (Y:16 6.0300 3.7450) // $llx=6.0300 $lly=3.7450 $urx=6.0300 $ury=3.7450 $lvl=2
*|S (Y:17 6.0300 3.0900) // $llx=6.0300 $lly=3.0900 $urx=6.0300 $ury=3.0900 $lvl=2
*|S (Y:19 6.0300 3.0150) // $llx=6.0300 $lly=3.0150 $urx=6.0300 $ury=3.0150 $lvl=2
*|S (Y:20 6.0300 2.2850) // $llx=6.0300 $lly=2.2850 $urx=6.0300 $ury=2.2850 $lvl=2
*|S (Y:21 6.0300 1.1550) // $llx=6.0300 $lly=1.1550 $urx=6.0300 $ury=1.1550 $lvl=2
*|S (Y:22 6.0300 0.9900) // $llx=6.0300 $lly=0.9900 $urx=6.0300 $ury=0.9900 $lvl=2
*|S (Y:24 6.0300 0.7750) // $llx=6.0300 $lly=0.7750 $urx=6.0300 $ury=0.7750 $lvl=2
*|S (Y:25 6.0300 0.3950) // $llx=6.0300 $lly=0.3950 $urx=6.0300 $ury=0.3950 $lvl=2
*|S (Y:26 6.0300 3.2345) // $llx=6.0300 $lly=3.2345 $urx=6.0300 $ury=3.2345 $lvl=1