*
*|DSPF 1.5
*
*|DATE "Wed Jan  8 23:22:25 2025"
*|VENDOR "Cadence Design Systems"
*|PROGRAM "Cadence Quantus Extraction"
*|VERSION "22.1.0-p089 Linux 64 bit - (Thu Jan 19 11:47:08 PST 2023)"
*|DESIGN AOI222X1_HS
*|DIVIDER /
*|DELIMITER :
*|DeviceFingerDelim "@"
*|BUSBIT []
*|GLOBAL_TEMPERATURE 25
*|OPERATING_TEMPERATURE 25

** *VIA_COVERAGE_CODES
** *index FF FS FP FU SF SS SP SU PF PS PP PU UF US UP UU X_by_Y
** * "FF" stands for Full landing and Full coverage
** *0 0 0 0 0 0 0 0 0 0 0 0 0 0 0 0 0
** *1 0 0 0 0 0 0 0 0 0 0 0 0 0 0 0 1 1x1
** *2 0 0 0 0 0 0 0 0 0 0 0 0 0 0 1 0 1x1
** *3 0 0 0 0 0 0 0 0 0 0 0 0 0 1 0 0 1x1
** *4 0 0 0 0 0 0 0 0 0 0 0 0 1 0 0 0 1x1
** *5 0 0 0 0 0 0 0 0 0 0 0 1 0 0 0 0 1x1
** *6 0 0 0 0 0 0 0 0 0 0 1 0 0 0 0 0 1x1
** *7 0 0 0 0 0 0 0 0 0 1 0 0 0 0 0 0 1x1
** *8 0 0 0 0 0 0 0 0 1 0 0 0 0 0 0 0 1x1
** *9 0 0 0 0 0 0 0 1 0 0 0 0 0 0 0 0 1x1
** *10 0 0 0 0 0 0 1 0 0 0 0 0 0 0 0 0 1x1
** *11 0 0 0 0 0 1 0 0 0 0 0 0 0 0 0 0 1x1
** *12 0 0 0 0 1 0 0 0 0 0 0 0 0 0 0 0 1x1
** *13 0 0 0 1 0 0 0 0 0 0 0 0 0 0 0 0 1x1
** *14 0 0 1 0 0 0 0 0 0 0 0 0 0 0 0 0 1x1
** *15 0 1 0 0 0 0 0 0 0 0 0 0 0 0 0 0 1x1
** *16 1 0 0 0 0 0 0 0 0 0 0 0 0 0 0 0 1x1

** *RESISTOR_TYPES
** *1 SHORTING_ELEMENT
** *2 PRES_NG
** *3 PRES_PG
** *4 PRES_NF
** *5 PRES_PF
** *6 TCN_NDIFF
** *7 TCN_PDIFF
** *8 TCN_NFIELD
** *9 TCN_PFIELD
** *10 QUALITY_EXTRACTED
** *11 GCNLAND
** *12 TCNLAND
** *13 DUMMY
** *14 RSD
** *15 BRIDGE

** *RESISTOR_CURRENT_DIRECTION
** *0 HORIZONTAL
** *1 VERTICAL
** *2 45 DEGREE

** QRC_TECH_DIR /vols/wfo_devel/projects/reference_SKY130/tech/sky130_release_0.0.4/quantus/extraction/typical 
** HIERARCHICAL_SPLIT_PINS_DELIMITER '%'
** caps2d version: 10
*
.SUBCKT  AOI222X1_HS A0 A1 B0 B1 C0 C1 Y
*
*Net Section
*
*|GROUND_NET VSS!
*
*LAYER_MAP
*0 none
*1 metal1
*2 li
*3 poly
*4 diff
*5 licon_diff
*6 mcon
*7 licon
*8 FOX

*|NET A0 1.18978e-15
*|P (A0 X 0 0.4750 1.6950) // $llx=0.4750 $lly=1.6950 $urx=0.4750 $ury=1.6950 $lvl=1
*|I (Mmp0:g Mmp0 g X 0 0.4750 3.0150) // $llx=0.4750 $lly=3.0150 $urx=0.4750 $ury=3.0150 $lvl=3
*|I (Mmn0:g Mmn0 g X 0 0.4750 0.7750) // $llx=0.4750 $lly=0.7750 $urx=0.4750 $ury=0.7750 $lvl=3
*|S (A0:8 0.4750 3.8950) // $llx=0.4750 $lly=3.8950 $urx=0.4750 $ury=3.8950 $lvl=3
*|S (A0:9 0.4150 1.5945) // $llx=0.4150 $lly=1.5945 $urx=0.4150 $ury=1.5945 $lvl=3
*|S (A0:10 0.4150 1.4300) // $llx=0.4150 $lly=1.4300 $urx=0.4150 $ury=1.4300 $lvl=3
*|S (A0:11 0.4150 1.2650) // $llx=0.4150 $lly=1.2650 $urx=0.4150 $ury=1.2650 $lvl=3
*|S (A0:12 0.4750 0.2450) // $llx=0.4750 $lly=0.2450 $urx=0.4750 $ury=0.2450 $lvl=3
*|S (A0:13 0.6900 1.4300) // $llx=0.6900 $lly=1.4300 $urx=0.6900 $ury=1.4300 $lvl=2
*|S (A0:14 0.4600 1.4300) // $llx=0.4600 $lly=1.4300 $urx=0.4600 $ury=1.4300 $lvl=2
*|S (A0:15 0.4150 1.4300) // $llx=0.4150 $lly=1.4300 $urx=0.4150 $ury=1.4300 $lvl=2
*|S (A0:16 0.2300 1.4300) // $llx=0.2300 $lly=1.4300 $urx=0.2300 $ury=1.4300 $lvl=2
*|S (A0:17 0.4600 2.2900) // $llx=0.4600 $lly=2.2900 $urx=0.4600 $ury=2.2900 $lvl=1
*|S (A0:18 0.4600 1.4300) // $llx=0.4600 $lly=1.4300 $urx=0.4600 $ury=1.4300 $lvl=1
*|S (A0:19 0.4600 1.0500) // $llx=0.4600 $lly=1.0500 $urx=0.4600 $ury=1.0500 $lvl=1
CA1 A0:8 VSS! 1.94733e-18 $lvl=3
CA2 A0:12 VSS! 3.06881e-18 $lvl=3
CA3 A0:18 VSS! 6.70476e-18 $lvl=1
CA4 A0:17 VSS! 8.58279e-18 $lvl=1
CA5 A0:19 VSS! 6.73412e-18 $lvl=1
CA6 A0:13 VSS! 4.62405e-18 $lvl=2
CA7 A0:16 VSS! 4.16902e-18 $lvl=2
CA8 A0:14 VSS! 4.26574e-18 $lvl=2
CA9 A0:10 VSS! 1.7509e-17 $lvl=3
CA10 A0:19 net139 1.82315e-18 $lvl1=1 $lvl2=2
CA11 A0:10 net139 1.77265e-18 $lvl1=3 $lvl2=2
CA12 A0:14 net139 1.36456e-18 $lvl1=2 $lvl2=2
CA13 A0:14 net139:3 1.2156e-18 $lvl1=2 $lvl2=2
CA14 A0:10 Mmn0:d 9.35695e-19 $lvl1=3 $lvl2=4
CA15 A0:18 net139:3 5.52782e-19 $lvl1=1 $lvl2=2
CA16 A0:12 net139:4 4.96444e-19 $lvl1=3 $lvl2=2
CA17 A0:12 net139:3 1.2621e-16 $lvl1=3 $lvl2=2
CA18 A0:10 net139:3 4.19197e-18 $lvl1=3 $lvl2=2
CA19 A0:13 net139:3 3.44287e-18 $lvl1=2 $lvl2=2
CA20 A0:19 net139:3 5.96939e-18 $lvl1=1 $lvl2=2
CA21 A0:13 net139 8.83488e-18 $lvl1=2 $lvl2=2
CA22 A0:17 net122:18 1.77916e-18 $lvl1=1 $lvl2=1
CA23 A0:10 net122 1.23487e-18 $lvl1=3 $lvl2=2
CA24 A0:8 net122:5 1.23151e-18 $lvl1=3 $lvl2=2
CA25 A0:17 net122:3 1.20438e-18 $lvl1=1 $lvl2=2
CA26 A0:18 net122:20 7.93434e-19 $lvl1=1 $lvl2=1
CA27 A0:10 net122:5 6.86812e-19 $lvl1=3 $lvl2=2
CA28 A0:18 net122 6.53424e-19 $lvl1=1 $lvl2=2
CA29 A0:16 net122 5.97678e-19 $lvl1=2 $lvl2=2
CA30 A0:16 net122:5 5.52648e-19 $lvl1=2 $lvl2=2
CA31 A0:10 Mmp0:d 5.47487e-19 $lvl1=3 $lvl2=4
CA32 A0:19 net122:20 5.15991e-19 $lvl1=1 $lvl2=1
CA33 A0:8 net122:6 5.08325e-19 $lvl1=3 $lvl2=2
CA34 A0:17 net122:20 1.0028e-17 $lvl1=1 $lvl2=1
CA35 A0:8 net122 2.5358e-16 $lvl1=3 $lvl2=2
CA36 A0:17 net122:5 6.47317e-18 $lvl1=1 $lvl2=2
CA37 A0:17 net122 6.92664e-18 $lvl1=1 $lvl2=2
CA38 A0:19 VSS!:19 4.05279e-18 $lvl1=1 $lvl2=1
CA39 A0:14 VSS!:16 3.51959e-18 $lvl1=2 $lvl2=2
CA40 A0:18 VSS!:16 2.52815e-18 $lvl1=1 $lvl2=2
CA41 A0:17 VSS!:16 2.42604e-18 $lvl1=1 $lvl2=2
CA42 A0:17 VSS!:18 1.8651e-18 $lvl1=1 $lvl2=1
CA43 A0:10 Mmn0:s 1.83785e-18 $lvl1=3 $lvl2=4
CA44 A0:18 VSS!:18 1.34212e-18 $lvl1=1 $lvl2=1
CA45 A0:17 VSS!:19 1.20074e-18 $lvl1=1 $lvl2=1
CA46 A0:18 VSS!:19 1.06704e-18 $lvl1=1 $lvl2=1
CA47 A0:13 VSS!:16 6.7083e-18 $lvl1=2 $lvl2=2
CA48 A0:12 VSS!:16 1.31271e-16 $lvl1=3 $lvl2=2
CA49 A0:19 VSS!:18 6.7158e-18 $lvl1=1 $lvl2=1
CA50 A0:16 VSS!:16 8.22981e-18 $lvl1=2 $lvl2=2
CA51 A0:10 VSS!:16 1.25414e-17 $lvl1=3 $lvl2=2
CA52 A0:12 VSS!:9 7.20236e-18 $lvl1=3 $lvl2=2
CA53 A0:19 VSS!:16 1.10354e-17 $lvl1=1 $lvl2=2
CA54 A0:16 VDD! 3.88936e-18 $lvl1=2 $lvl2=1
CA55 A0:14 VDD! 1.33938e-18 $lvl1=2 $lvl2=1
CA56 A0:17 VDD!:10 1.24815e-18 $lvl1=1 $lvl2=1
CA57 A0:17 VDD!:11 9.73169e-19 $lvl1=1 $lvl2=1
CA58 A0:13 VDD! 9.2998e-19 $lvl1=2 $lvl2=1
CA59 A0:8 VDD!:1 2.46011e-16 $lvl1=3 $lvl2=2
CA60 A0:8 VDD!:4 8.07938e-18 $lvl1=3 $lvl2=2
CA61 A0:18 VDD! 7.93642e-18 $lvl1=1 $lvl2=1
CA62 A0:17 VDD! 1.92063e-17 $lvl1=1 $lvl2=1
CA63 A0:19 VDD! 1.12036e-17 $lvl1=1 $lvl2=1
CA64 A0:17 VDD!:1 6.8739e-18 $lvl1=1 $lvl2=2
CA65 A0:10 VDD! 6.3188e-18 $lvl1=3 $lvl2=1
CA66 A0:18 Y:22 2.29988e-18 $lvl1=1 $lvl2=1
CA67 A0:13 Y:1 1.93893e-18 $lvl1=2 $lvl2=2
CA68 A0:19 Y:1 1.26255e-18 $lvl1=1 $lvl2=2
CA69 A0:19 Y:2 1.163e-18 $lvl1=1 $lvl2=2
CA70 A0:17 Y:22 1.10178e-18 $lvl1=1 $lvl2=1
CA71 A0:19 Y:22 9.17877e-18 $lvl1=1 $lvl2=1
CA72 A0:13 B1:15 2.90235e-18 $lvl1=2 $lvl2=2
CA73 A0:19 B1:18 1.92403e-18 $lvl1=1 $lvl2=1
CA74 A0:17 B1:16 1.66663e-18 $lvl1=1 $lvl2=1
CA75 A0:19 B1:17 1.02534e-18 $lvl1=1 $lvl2=1
CA76 A0:13 B1:9 8.98687e-19 $lvl1=2 $lvl2=3
CA77 A0:10 B1:9 8.89463e-19 $lvl1=3 $lvl2=3
CA78 A0:18 B1:17 7.9569e-19 $lvl1=1 $lvl2=1
CA79 A0:18 B1:18 7.87959e-19 $lvl1=1 $lvl2=1
CA80 A0:10 B1:15 7.29065e-19 $lvl1=3 $lvl2=2
CA81 A0:17 B1:17 6.46352e-19 $lvl1=1 $lvl2=1
CA82 A0:19 A1:18 5.75527e-18 $lvl1=1 $lvl2=1
CA83 A0:13 A1:15 4.24667e-18 $lvl1=2 $lvl2=2
CA84 A0:10 A1:9 4.15055e-18 $lvl1=3 $lvl2=3
CA85 A0:17 A1:13 3.88019e-18 $lvl1=1 $lvl2=2
CA86 A0:13 A1:9 2.73695e-18 $lvl1=2 $lvl2=3
CA87 A0:10 A1:15 2.68964e-18 $lvl1=3 $lvl2=2
CA88 A0:8 A1:9 2.19357e-18 $lvl1=3 $lvl2=3
CA89 A0:13 A1:18 2.14892e-18 $lvl1=2 $lvl2=1
CA90 A0:14 A1:18 2.07602e-18 $lvl1=2 $lvl2=1
CA91 A0:18 A1:16 1.98999e-18 $lvl1=1 $lvl2=1
CA92 A0:13 A1:13 1.92201e-18 $lvl1=2 $lvl2=2
CA93 A0:10 Mmn1:g 1.80989e-18 $lvl1=3 $lvl2=3
CA94 A0:14 A1:15 1.43384e-18 $lvl1=2 $lvl2=2
CA95 A0:13 A1:12 9.63194e-19 $lvl1=2 $lvl2=2
CA96 A0:19 A1:16 8.78581e-19 $lvl1=1 $lvl2=1
CA97 A0:14 A1:13 8.09004e-19 $lvl1=2 $lvl2=2
CA98 A0:8 A1:15 7.40581e-19 $lvl1=3 $lvl2=2
CA99 A0:17 A1:9 6.8731e-19 $lvl1=1 $lvl2=3
CA100 A0:13 Mmn1:g 6.67545e-19 $lvl1=2 $lvl2=3
CA101 A0:16 A1:15 6.32098e-19 $lvl1=2 $lvl2=2
CA102 A0:17 A1:18 1.49361e-17 $lvl1=1 $lvl2=1
CA103 A0:17 A1:15 6.12831e-18 $lvl1=1 $lvl2=2
CA104 A0:18 A1:18 1.88282e-17 $lvl1=1 $lvl2=1
CA105 A0:17 A1:16 5.89839e-17 $lvl1=1 $lvl2=1
ReA1 A0:17 A0 0.286058 $metal1  $L=0.595 $W=0.260000 $SI_W=0.26 $TYPE=10 $DIR=1 $LLX=0.330000 $LLY=1.695000 $URX=0.590000 $URY=2.290000 $lvl=1
ReA2 A0 A0:18 0.127404 $metal1  $L=0.265 $W=0.260000 $SI_W=0.26 $TYPE=10 $DIR=1 $LLX=0.330000 $LLY=1.430000 $URX=0.590000 $URY=1.695000 $lvl=1
ReA3 A0:18 A0:19 0.182692 $metal1  $L=0.38 $W=0.260000 $SI_W=0.26 $TYPE=10 $DIR=1 $LLX=0.330000 $LLY=1.050000 $URX=0.590000 $URY=1.430000 $lvl=1
RfA4 A0:13 A0:14 17.317646 $li  $L=0.23 $W=0.170000 $SI_W=0.17 $TYPE=10 $DIR=0 $LLX=0.460000 $LLY=1.345000 $URX=0.690000 $URY=1.515000 $lvl=2
RfA5 A0:14 A0:15 3.388236 $li  $L=0.045 $W=1000000 $SI_W=1000000 $TYPE=1,10 $DIR=0 $LLX=0.415000 $LLY=1.345000 $URX=0.460000 $URY=1.515000 $lvl=2
RfA6 A0:15 A0:16 13.929413 $li  $L=0.185 $W=0.170000 $SI_W=0.17 $TYPE=10 $DIR=0 $LLX=0.230000 $LLY=1.345000 $URX=0.415000 $URY=1.515000 $lvl=2
RgA7 A0:8 Mmp0:g 282.773346 $poly  $L=0.88 $W=0.150000 $SI_W=0.15 $TYPE=10 $DIR=1 $LLX=0.400000 $LLY=3.015000 $URX=0.550000 $URY=3.895000 $lvl=3
RgA8 Mmp0:g A0:9 456.337952 $poly  $L=1.42 $W=0.150000 $SI_W=0.15 $TYPE=10 $DIR=1 $LLX=0.400000 $LLY=1.594500 $URX=0.550000 $URY=3.014500 $lvl=3
RgA9 A0:9 A0:10 38.857975 $poly  $L=0.1645 $W=0.270000 $SI_W=0.27 $TYPE=10 $DIR=1 $LLX=0.280000 $LLY=1.430000 $URX=0.550000 $URY=1.594500 $lvl=3
RgA10 A0:10 A0:11 29.410927 $poly  $L=0.1645 $W=0.270000 $SI_W=0.27 $TYPE=10 $DIR=1 $LLX=0.280000 $LLY=1.265500 $URX=0.550000 $URY=1.430000 $lvl=3
RgA11 A0:11 Mmn0:g 157.497955 $poly  $L=0.49 $W=0.150000 $SI_W=0.15 $TYPE=10 $DIR=1 $LLX=0.400000 $LLY=0.775000 $URX=0.550000 $URY=1.265000 $lvl=3
RgA12 Mmn0:g A0:12 170.306671 $poly  $L=0.53 $W=0.150000 $SI_W=0.15 $TYPE=10 $DIR=1 $LLX=0.400000 $LLY=0.245000 $URX=0.550000 $URY=0.775000 $lvl=3
RjA13 A0:14 A0:18 152.000000 $mcon  $L=0.17 $W=0.17 $A=0.0289 $VC=0 $SAVL=0 $SAVC=0 $SI_A=0.0289 $COVER_DIR=0 $LLX=0.000000 $LLY=0.000000 $URX=0.170000 $URY=0.170000 $lvl=6
RiA14 A0:10 A0:15 15.000000 $licon  $L=0.17 $W=0.17 $A=0.0289 $VC=0 $SAVL=0 $SAVC=0 $SI_A=0.0289 $COVER_DIR=0 $LLX=0.000000 $LLY=0.000000 $URX=0.170000 $URY=0.170000 $lvl=7
*
*|NET B1 1.28761e-15
*|P (B1 X 0 1.3950 1.7500) // $llx=1.3950 $lly=1.7500 $urx=1.3950 $ury=1.7500 $lvl=1
*|I (Mmp3:g Mmp3 g X 0 1.3350 3.0150) // $llx=1.3350 $lly=3.0150 $urx=1.3350 $ury=3.0150 $lvl=3
*|I (Mmn3:g Mmn3 g X 0 1.3350 0.7750) // $llx=1.3350 $lly=0.7750 $urx=1.3350 $ury=0.7750 $lvl=3
*|S (B1:8 1.3350 3.8950) // $llx=1.3350 $lly=3.8950 $urx=1.3350 $ury=3.8950 $lvl=3
*|S (B1:9 1.3350 1.4300) // $llx=1.3350 $lly=1.4300 $urx=1.3350 $ury=1.4300 $lvl=3
*|S (B1:10 1.3350 1.2650) // $llx=1.3350 $lly=1.2650 $urx=1.3350 $ury=1.2650 $lvl=3
*|S (B1:11 1.3350 0.2450) // $llx=1.3350 $lly=0.2450 $urx=1.3350 $ury=0.2450 $lvl=3
*|S (B1:12 1.5500 1.4300) // $llx=1.5500 $lly=1.4300 $urx=1.5500 $ury=1.4300 $lvl=2
*|S (B1:13 1.3800 1.4300) // $llx=1.3800 $lly=1.4300 $urx=1.3800 $ury=1.4300 $lvl=2
*|S (B1:14 1.3350 1.4300) // $llx=1.3350 $lly=1.4300 $urx=1.3350 $ury=1.4300 $lvl=2
*|S (B1:15 1.0900 1.4300) // $llx=1.0900 $lly=1.4300 $urx=1.0900 $ury=1.4300 $lvl=2
*|S (B1:16 1.3800 2.3400) // $llx=1.3800 $lly=2.3400 $urx=1.3800 $ury=2.3400 $lvl=1
*|S (B1:17 1.3800 1.4300) // $llx=1.3800 $lly=1.4300 $urx=1.3800 $ury=1.4300 $lvl=1
*|S (B1:18 1.3800 1.1000) // $llx=1.3800 $lly=1.1000 $urx=1.3800 $ury=1.1000 $lvl=1
CD1 Mmn3:g VSS! 3.31715e-18 $lvl=3
CD2 B1:8 VSS! 4.59462e-18 $lvl=3
CD3 B1:17 VSS! 8.27643e-18 $lvl=1
CD4 B1:16 VSS! 1.21356e-17 $lvl=1
CD5 B1:18 VSS! 9.00764e-18 $lvl=1
CD6 B1:14 VSS! 6.28896e-18 $lvl=2
CD7 B1:15 VSS! 8.18105e-18 $lvl=2
CD8 B1:13 VSS! 5.85035e-18 $lvl=2
CD9 B1:9 VSS! 1.96136e-17 $lvl=3
CD10 B1:13 net147:3 1.95584e-18 $lvl1=2 $lvl2=2
CD11 B1:18 net147 1.55501e-18 $lvl1=1 $lvl2=2
CD12 B1:9 Mmn3:s 1.32246e-18 $lvl1=3 $lvl2=4
CD13 Mmn3:g net147:4 4.57886e-19 $lvl1=3 $lvl2=2
CD14 B1:14 net147:3 2.49624e-18 $lvl1=2 $lvl2=2
CD15 B1:14 net147 7.06376e-18 $lvl1=2 $lvl2=2
CD16 B1:9 net147 2.69168e-18 $lvl1=3 $lvl2=2
CD17 Mmn3:g net147:3 1.26559e-16 $lvl1=3 $lvl2=2
CD18 B1:18 net147:3 2.81047e-18 $lvl1=1 $lvl2=2
CD19 B1:9 net147:3 4.98678e-18 $lvl1=3 $lvl2=2
CD20 B1:13 net147 3.79518e-18 $lvl1=2 $lvl2=2
CD21 B1:16 net118:5 4.37831e-18 $lvl1=1 $lvl2=2
CD22 B1:16 net118 3.33381e-18 $lvl1=1 $lvl2=2
CD23 B1:8 net118 2.54682e-16 $lvl1=3 $lvl2=2
CD24 B1:16 net122:18 5.69967e-18 $lvl1=1 $lvl2=1
CD25 B1:16 net122:10 3.65195e-18 $lvl1=1 $lvl2=2
CD26 B1:16 net122:6 2.53699e-18 $lvl1=1 $lvl2=2
CD27 B1:16 net122:17 1.721e-18 $lvl1=1 $lvl2=1
CD28 B1:8 net122:6 2.49809e-16 $lvl1=3 $lvl2=2
CD29 B1:14 VSS!:12 2.23569e-18 $lvl1=2 $lvl2=2
CD30 B1:18 VSS!:18 1.92624e-18 $lvl1=1 $lvl2=1
CD31 Mmn3:g VSS!:9 1.57013e-18 $lvl1=3 $lvl2=2
CD32 B1:9 VSS!:12 1.37202e-18 $lvl1=3 $lvl2=2
CD33 B1:18 VSS!:12 1.25305e-18 $lvl1=1 $lvl2=2
CD34 B1:17 VSS!:18 1.10682e-18 $lvl1=1 $lvl2=1
CD35 Mmn3:g VSS!:5 7.49384e-18 $lvl1=3 $lvl2=2
CD36 B1:16 VDD! 4.34804e-18 $lvl1=1 $lvl2=1
CD37 B1:17 VDD! 2.39146e-18 $lvl1=1 $lvl2=1
CD38 B1:8 VDD!:4 7.49777e-18 $lvl1=3 $lvl2=2
CD39 B1:17 Y:22 5.20215e-18 $lvl1=1 $lvl2=1
CD40 B1:13 Y:1 3.80491e-18 $lvl1=2 $lvl2=2
CD41 B1:18 Y:1 2.67931e-18 $lvl1=1 $lvl2=2
CD42 B1:14 Y:1 2.3868e-18 $lvl1=2 $lvl2=2
CD43 B1:18 Y:18 2.13405e-18 $lvl1=1 $lvl2=1
CD44 B1:18 Y:2 2.0031e-18 $lvl1=1 $lvl2=2
CD45 B1:17 Y:18 1.36101e-18 $lvl1=1 $lvl2=1
CD46 B1:13 Y:22 1.27362e-18 $lvl1=2 $lvl2=1
CD47 B1:9 Mmn3:d 1.20632e-18 $lvl1=3 $lvl2=4
CD48 B1:16 Y:22 1.14836e-18 $lvl1=1 $lvl2=1
CD49 B1:16 Y:18 8.18264e-19 $lvl1=1 $lvl2=1
CD50 Mmn3:g Y:1 1.26945e-16 $lvl1=3 $lvl2=2
CD51 B1:15 Y:1 9.48672e-18 $lvl1=2 $lvl2=2
CD52 B1:18 Y:22 4.50684e-17 $lvl1=1 $lvl2=1
CD53 B1:9 Y:1 8.07331e-18 $lvl1=3 $lvl2=2
ReD42 B1:16 B1 0.283654 $metal1  $L=0.59 $W=0.260000 $SI_W=0.26 $TYPE=10 $DIR=1 $LLX=1.250000 $LLY=1.750000 $URX=1.510000 $URY=2.340000 $lvl=1
ReD43 B1 B1:17 0.153846 $metal1  $L=0.32 $W=0.260000 $SI_W=0.26 $TYPE=10 $DIR=1 $LLX=1.250000 $LLY=1.430000 $URX=1.510000 $URY=1.750000 $lvl=1
ReD44 B1:17 B1:18 0.158654 $metal1  $L=0.33 $W=0.260000 $SI_W=0.26 $TYPE=10 $DIR=1 $LLX=1.250000 $LLY=1.100000 $URX=1.510000 $URY=1.430000 $lvl=1
RfD45 B1:12 B1:13 12.800000 $li  $L=0.17 $W=0.170000 $SI_W=0.17 $TYPE=10 $DIR=0 $LLX=1.380000 $LLY=1.345000 $URX=1.550000 $URY=1.515000 $lvl=2
RfD46 B1:13 B1:14 3.388236 $li  $L=0.045 $W=1000000 $SI_W=1000000 $TYPE=1,10 $DIR=0 $LLX=1.335000 $LLY=1.345000 $URX=1.380000 $URY=1.515000 $lvl=2
RfD47 B1:14 B1:15 18.447058 $li  $L=0.245 $W=0.170000 $SI_W=0.17 $TYPE=10 $DIR=0 $LLX=1.090000 $LLY=1.345000 $URX=1.335000 $URY=1.515000 $lvl=2
RgD48 B1:8 Mmp3:g 282.773346 $poly  $L=0.88 $W=0.150000 $SI_W=0.15 $TYPE=10 $DIR=1 $LLX=1.260000 $LLY=3.015000 $URX=1.410000 $URY=3.895000 $lvl=3
RgD49 Mmp3:g B1:9 490.472412 $poly  $L=1.585 $W=0.150000 $SI_W=0.15 $TYPE=10 $DIR=1 $LLX=1.260000 $LLY=1.430000 $URX=1.410000 $URY=3.015000 $lvl=3
RgD50 B1:9 B1:10 34.134449 $poly  $L=0.1645 $W=0.270000 $SI_W=0.27 $TYPE=10 $DIR=1 $LLX=1.200000 $LLY=1.265500 $URX=1.470000 $URY=1.430000 $lvl=3
RgD51 B1:10 Mmn3:g 157.497955 $poly  $L=0.49 $W=0.150000 $SI_W=0.15 $TYPE=10 $DIR=1 $LLX=1.260000 $LLY=0.775000 $URX=1.410000 $URY=1.265000 $lvl=3
RgD52 Mmn3:g B1:11 170.306671 $poly  $L=0.53 $W=0.150000 $SI_W=0.15 $TYPE=10 $DIR=1 $LLX=1.260000 $LLY=0.245000 $URX=1.410000 $URY=0.775000 $lvl=3
RjD53 B1:13 B1:17 152.000000 $mcon  $L=0.17 $W=0.17 $A=0.0289 $VC=0 $SAVL=0 $SAVC=0 $SI_A=0.0289 $COVER_DIR=0 $LLX=0.000000 $LLY=0.000000 $URX=0.170000 $URY=0.170000 $lvl=6
RiD54 B1:9 B1:14 15.000000 $licon  $L=0.17 $W=0.17 $A=0.0289 $VC=0 $SAVL=0 $SAVC=0 $SI_A=0.0289 $COVER_DIR=0 $LLX=0.000000 $LLY=0.000000 $URX=0.170000 $URY=0.170000 $lvl=7
*
*|NET A1 1.28207e-15
*|P (A1 X 0 0.9350 2.1400) // $llx=0.9350 $lly=2.1400 $urx=0.9350 $ury=2.1400 $lvl=1
*|I (Mmp1:g Mmp1 g X 0 0.9050 3.0150) // $llx=0.9050 $lly=3.0150 $urx=0.9050 $ury=3.0150 $lvl=3
*|I (Mmn1:g Mmn1 g X 0 0.9050 0.7750) // $llx=0.9050 $lly=0.7750 $urx=0.9050 $ury=0.7750 $lvl=3
*|S (A1:8 0.9050 3.8950) // $llx=0.9050 $lly=3.8950 $urx=0.9050 $ury=3.8950 $lvl=3
*|S (A1:9 0.9050 1.9100) // $llx=0.9050 $lly=1.9100 $urx=0.9050 $ury=1.9100 $lvl=3
*|S (A1:10 0.9050 1.7450) // $llx=0.9050 $lly=1.7450 $urx=0.9050 $ury=1.7450 $lvl=3
*|S (A1:11 0.9050 0.2450) // $llx=0.9050 $lly=0.2450 $urx=0.9050 $ury=0.2450 $lvl=3
*|S (A1:12 1.0900 1.9100) // $llx=1.0900 $lly=1.9100 $urx=1.0900 $ury=1.9100 $lvl=2
*|S (A1:13 0.9200 1.9100) // $llx=0.9200 $lly=1.9100 $urx=0.9200 $ury=1.9100 $lvl=2
*|S (A1:14 0.9050 1.9100) // $llx=0.9050 $lly=1.9100 $urx=0.9050 $ury=1.9100 $lvl=2
*|S (A1:15 0.6300 1.9100) // $llx=0.6300 $lly=1.9100 $urx=0.6300 $ury=1.9100 $lvl=2
*|S (A1:16 0.9200 2.7350) // $llx=0.9200 $lly=2.7350 $urx=0.9200 $ury=2.7350 $lvl=1
*|S (A1:17 0.9200 1.9100) // $llx=0.9200 $lly=1.9100 $urx=0.9200 $ury=1.9100 $lvl=1
*|S (A1:18 0.9200 1.4950) // $llx=0.9200 $lly=1.4950 $urx=0.9200 $ury=1.4950 $lvl=1
CB1 Mmn1:g VSS! 3.76139e-18 $lvl=3
CB2 Mmp1:g VSS! 3.22227e-18 $lvl=3
CB3 A1:16 VSS! 1.33141e-17 $lvl=1
CB4 A1:18 VSS! 7.5935e-18 $lvl=1
CB5 A1:12 VSS! 7.91408e-18 $lvl=2
CB6 A1:15 VSS! 5.78671e-18 $lvl=2
CB7 A1:13 VSS! 5.83817e-18 $lvl=2
CB8 A1:9 VSS! 2.0849e-17 $lvl=3
CB9 A1:18 net139:3 6.71572e-19 $lvl1=1 $lvl2=2
CB10 A1:18 net139 6.35151e-19 $lvl1=1 $lvl2=2
CB11 A1:9 net139:3 5.07247e-19 $lvl1=3 $lvl2=2
CB12 Mmn1:g net139:3 1.25663e-16 $lvl1=3 $lvl2=2
CB13 A1:16 net122:10 4.86321e-18 $lvl1=1 $lvl2=2
CB14 A1:12 net122:10 3.5808e-18 $lvl1=2 $lvl2=2
CB15 A1:9 net122:6 3.1116e-18 $lvl1=3 $lvl2=2
CB16 A1:13 net122:10 3.02322e-18 $lvl1=2 $lvl2=2
CB17 A1:9 net122:10 2.99094e-18 $lvl1=3 $lvl2=2
CB18 A1:16 net122:8 2.73368e-18 $lvl1=1 $lvl2=2
CB19 A1:16 net122 2.47427e-18 $lvl1=1 $lvl2=2
CB20 A1:15 net122:5 1.9181e-18 $lvl1=2 $lvl2=2
CB21 A1:16 net122:17 1.39771e-18 $lvl1=1 $lvl2=1
CB22 A1:9 Mmp3:s 1.13266e-18 $lvl1=3 $lvl2=4
CB23 A1:15 net122 1.0658e-18 $lvl1=2 $lvl2=2
CB24 A1:9 net122 1.0294e-18 $lvl1=3 $lvl2=2
CB25 A1:12 net122:6 8.87441e-19 $lvl1=2 $lvl2=2
CB26 A1:16 net122:3 7.98088e-19 $lvl1=1 $lvl2=2
CB27 Mmp1:g net122:10 7.83306e-19 $lvl1=3 $lvl2=2
CB28 A1:16 net122:5 7.7859e-19 $lvl1=1 $lvl2=2
CB29 A1:16 net122:6 9.0156e-18 $lvl1=1 $lvl2=2
CB30 A1:16 net122:18 4.85301e-17 $lvl1=1 $lvl2=1
CB31 Mmp1:g net122:6 2.50431e-16 $lvl1=3 $lvl2=2
CB32 A1:16 net122:20 1.43253e-17 $lvl1=1 $lvl2=1
CB33 Mmn1:g VSS!:5 1.27026e-18 $lvl1=3 $lvl2=2
CB34 Mmn1:g VSS!:9 8.10655e-18 $lvl1=3 $lvl2=2
CB35 A1:9 VDD!:1 5.93619e-18 $lvl1=3 $lvl2=2
CB36 A1:15 VDD!:1 5.63776e-18 $lvl1=2 $lvl2=2
CB37 A1:9 VDD! 3.705e-18 $lvl1=3 $lvl2=1
CB38 A1:13 VDD!:1 3.35332e-18 $lvl1=2 $lvl2=2
CB39 A1:18 VDD! 3.02983e-18 $lvl1=1 $lvl2=1
CB40 A1:16 VDD!:10 2.15708e-18 $lvl1=1 $lvl2=1
CB41 Mmp1:g VDD!:4 8.09196e-18 $lvl1=3 $lvl2=2
CB42 Mmp1:g VDD!:1 2.49685e-16 $lvl1=3 $lvl2=2
CB43 A1:16 VDD!:1 1.43025e-17 $lvl1=1 $lvl2=2
CB44 A1:16 VDD! 8.6413e-18 $lvl1=1 $lvl2=1
CB45 A1:18 Y:22 3.82698e-18 $lvl1=1 $lvl2=1
CB46 A1:18 Y:1 1.27544e-18 $lvl1=1 $lvl2=2
CB47 Mmn1:g Y:1 1.26571e-16 $lvl1=3 $lvl2=2
CB48 A1:9 B1:9 5.15032e-18 $lvl1=3 $lvl2=3
CB49 A1:18 B1:18 4.61811e-18 $lvl1=1 $lvl2=1
CB50 A1:13 B1:16 4.01419e-18 $lvl1=2 $lvl2=1
CB51 A1:18 B1:15 2.99975e-18 $lvl1=1 $lvl2=2
CB52 A1:12 B1:16 2.79126e-18 $lvl1=2 $lvl2=1
CB53 A1:12 B1:15 2.55312e-18 $lvl1=2 $lvl2=2
CB54 Mmn1:g B1:9 2.54692e-18 $lvl1=3 $lvl2=3
CB55 A1:9 B1:15 2.52253e-18 $lvl1=3 $lvl2=2
CB56 A1:9 B1:8 2.37224e-18 $lvl1=3 $lvl2=3
CB57 A1:18 B1:13 2.18843e-18 $lvl1=1 $lvl2=2
CB58 A1:16 B1:17 2.05553e-18 $lvl1=1 $lvl2=1
CB59 A1:13 B1:15 2.0291e-18 $lvl1=2 $lvl2=2
CB60 A1:12 B1:9 1.7869e-18 $lvl1=2 $lvl2=3
CB61 A1:12 B1:13 1.17216e-18 $lvl1=2 $lvl2=2
CB62 A1:13 B1:13 9.36949e-19 $lvl1=2 $lvl2=2
CB63 A1:12 B1:14 8.70307e-19 $lvl1=2 $lvl2=2
CB64 A1:15 B1:15 6.50643e-19 $lvl1=2 $lvl2=2
CB65 A1:13 B1:17 5.93091e-19 $lvl1=2 $lvl2=1
CB66 A1:9 B1:16 5.22769e-19 $lvl1=3 $lvl2=1
CB67 A1:16 B1:16 6.21534e-17 $lvl1=1 $lvl2=1
CB68 A1:18 B1:17 2.08093e-17 $lvl1=1 $lvl2=1
CB69 A1:18 B1:16 1.2374e-17 $lvl1=1 $lvl2=1
CB70 A1:16 B0:17 4.71436e-18 $lvl1=1 $lvl2=1
CB71 A1:12 B0:16 1.09577e-18 $lvl1=2 $lvl2=2
CB72 A1:9 B0:10 1.0463e-18 $lvl1=3 $lvl2=3
ReB15 A1:16 A1 0.286058 $metal1  $L=0.595 $W=0.260000 $SI_W=0.26 $TYPE=10 $DIR=1 $LLX=0.790000 $LLY=2.140000 $URX=1.050000 $URY=2.735000 $lvl=1
ReB16 A1 A1:17 0.110577 $metal1  $L=0.23 $W=0.260000 $SI_W=0.26 $TYPE=10 $DIR=1 $LLX=0.805000 $LLY=1.910000 $URX=1.065000 $URY=2.140000 $lvl=1
ReB17 A1:17 A1:18 0.199519 $metal1  $L=0.415 $W=0.260000 $SI_W=0.26 $TYPE=10 $DIR=1 $LLX=0.790000 $LLY=1.495000 $URX=1.050000 $URY=1.910000 $lvl=1
RfB18 A1:12 A1:13 12.800000 $li  $L=0.17 $W=0.170000 $SI_W=0.17 $TYPE=10 $DIR=0 $LLX=0.920000 $LLY=1.825000 $URX=1.090000 $URY=1.995000 $lvl=2
RfB19 A1:13 A1:14 1.129412 $li  $L=0.015 $W=1000000 $SI_W=1000000 $TYPE=1,10 $DIR=0 $LLX=0.905000 $LLY=1.825000 $URX=0.920000 $URY=1.995000 $lvl=2
RfB20 A1:14 A1:15 20.705883 $li  $L=0.275 $W=0.170000 $SI_W=0.17 $TYPE=10 $DIR=0 $LLX=0.630000 $LLY=1.825000 $URX=0.905000 $URY=1.995000 $lvl=2
RgB21 A1:8 Mmp1:g 282.773346 $poly  $L=0.88 $W=0.150000 $SI_W=0.15 $TYPE=10 $DIR=1 $LLX=0.830000 $LLY=3.015000 $URX=0.980000 $URY=3.895000 $lvl=3
RgB22 Mmp1:g A1:9 336.232422 $poly  $L=1.105 $W=0.150000 $SI_W=0.15 $TYPE=10 $DIR=1 $LLX=0.830000 $LLY=1.910000 $URX=0.980000 $URY=3.015000 $lvl=3
RgB23 A1:9 A1:10 34.134449 $poly  $L=0.1645 $W=0.270000 $SI_W=0.27 $TYPE=10 $DIR=1 $LLX=0.770000 $LLY=1.745500 $URX=1.040000 $URY=1.910000 $lvl=3
RgB24 A1:10 Mmn1:g 311.737976 $poly  $L=0.97 $W=0.150000 $SI_W=0.15 $TYPE=10 $DIR=1 $LLX=0.830000 $LLY=0.775000 $URX=0.980000 $URY=1.745000 $lvl=3
RgB25 Mmn1:g A1:11 170.306671 $poly  $L=0.53 $W=0.150000 $SI_W=0.15 $TYPE=10 $DIR=1 $LLX=0.830000 $LLY=0.245000 $URX=0.980000 $URY=0.775000 $lvl=3
RjB26 A1:13 A1:17 152.000000 $mcon  $L=0.17 $W=0.17 $A=0.0289 $VC=0 $SAVL=0 $SAVC=0 $SI_A=0.0289 $COVER_DIR=0 $LLX=0.000000 $LLY=0.000000 $URX=0.170000 $URY=0.170000 $lvl=6
RiB27 A1:9 A1:14 15.000000 $licon  $L=0.17 $W=0.17 $A=0.0289 $VC=0 $SAVL=0 $SAVC=0 $SI_A=0.0289 $COVER_DIR=0 $LLX=0.000000 $LLY=0.000000 $URX=0.170000 $URY=0.170000 $lvl=7
*
*|NET C0 1.34079e-15
*|P (C0 X 0 2.3150 1.9750) // $llx=2.3150 $lly=1.9750 $urx=2.3150 $ury=1.9750 $lvl=1
*|I (Mmp4:g Mmp4 g X 0 2.7150 3.0150) // $llx=2.7150 $lly=3.0150 $urx=2.7150 $ury=3.0150 $lvl=3
*|I (Mmn4:g Mmn4 g X 0 2.7150 0.7750) // $llx=2.7150 $lly=0.7750 $urx=2.7150 $ury=0.7750 $lvl=3
*|S (C0:8 2.7150 3.8950) // $llx=2.7150 $lly=3.8950 $urx=2.7150 $ury=3.8950 $lvl=3
*|S (C0:9 2.6550 1.5945) // $llx=2.6550 $lly=1.5945 $urx=2.6550 $ury=1.5945 $lvl=3
*|S (C0:10 2.6550 1.4300) // $llx=2.6550 $lly=1.4300 $urx=2.6550 $ury=1.4300 $lvl=3
*|S (C0:11 2.6550 1.2650) // $llx=2.6550 $lly=1.2650 $urx=2.6550 $ury=1.2650 $lvl=3
*|S (C0:12 2.7150 0.2450) // $llx=2.7150 $lly=0.2450 $urx=2.7150 $ury=0.2450 $lvl=3
*|S (C0:13 2.8400 1.4300) // $llx=2.8400 $lly=1.4300 $urx=2.8400 $ury=1.4300 $lvl=2
*|S (C0:14 2.6550 1.4300) // $llx=2.6550 $lly=1.4300 $urx=2.6550 $ury=1.4300 $lvl=2
*|S (C0:15 2.3000 1.4300) // $llx=2.3000 $lly=1.4300 $urx=2.3000 $ury=1.4300 $lvl=2
*|S (C0:16 2.1350 1.4300) // $llx=2.1350 $lly=1.4300 $urx=2.1350 $ury=1.4300 $lvl=2
*|S (C0:17 2.3000 1.3300) // $llx=2.3000 $lly=1.3300 $urx=2.3000 $ury=1.3300 $lvl=1
*|S (C0:18 2.3000 1.4300) // $llx=2.3000 $lly=1.4300 $urx=2.3000 $ury=1.4300 $lvl=1
*|S (C0:19 2.3000 1.2850) // $llx=2.3000 $lly=1.2850 $urx=2.3000 $ury=1.2850 $lvl=1
*|S (C0:20 2.3000 2.5700) // $llx=2.3000 $lly=2.5700 $urx=2.3000 $ury=2.5700 $lvl=1
CE1 C0:8 VSS! 4.56709e-18 $lvl=3
CE2 C0:12 VSS! 2.62815e-18 $lvl=3
CE3 C0:18 VSS! 8.48299e-18 $lvl=1
CE4 C0:17 VSS! 5.29656e-18 $lvl=1
CE5 C0:20 VSS! 8.17381e-18 $lvl=1
CE6 C0:14 VSS! 5.98388e-18 $lvl=2
CE7 C0:16 VSS! 1.20005e-17 $lvl=2
CE8 C0:15 VSS! 3.99858e-18 $lvl=2
CE9 C0:10 VSS! 1.9482e-17 $lvl=3
CE10 C0 VSS! 6.41727e-18 $lvl=1
CE11 C0:10 net155 2.09793e-18 $lvl1=3 $lvl2=2
CE12 C0:10 Mmn5:s 9.02531e-19 $lvl1=3 $lvl2=4
CE13 C0:14 net155:3 3.02634e-18 $lvl1=2 $lvl2=2
CE14 C0:10 net155:3 4.28197e-18 $lvl1=3 $lvl2=2
CE15 C0:14 net155 6.72361e-18 $lvl1=2 $lvl2=2
CE16 C0:12 net155:3 1.23656e-16 $lvl1=3 $lvl2=2
CE17 C0:20 net118:10 5.74766e-18 $lvl1=1 $lvl2=2
CE18 C0:20 net118:18 1.98757e-18 $lvl1=1 $lvl2=1
CE19 C0:8 net118:10 1.00857e-18 $lvl1=3 $lvl2=2
CE20 C0:10 net118:6 8.123e-19 $lvl1=3 $lvl2=2
CE21 C0:20 net118:20 6.15389e-19 $lvl1=1 $lvl2=1
CE22 C0 net118:10 6.0853e-19 $lvl1=1 $lvl2=2
CE23 C0:8 net118:11 5.31204e-19 $lvl1=3 $lvl2=2
CE24 C0:8 net118:6 2.55776e-16 $lvl1=3 $lvl2=2
CE25 C0:20 net118:6 7.99104e-18 $lvl1=1 $lvl2=2
CE26 C0:20 net122:11 5.22677e-18 $lvl1=1 $lvl2=2
CE27 C0:20 net122:15 3.1298e-18 $lvl1=1 $lvl2=2
CE28 C0:20 net122:17 9.22678e-18 $lvl1=1 $lvl2=1
CE29 C0:15 VSS!:1 2.2895e-18 $lvl1=2 $lvl2=2
CE30 C0:17 VSS!:12 1.91989e-18 $lvl1=1 $lvl2=2
CE31 C0:17 VSS!:1 1.91564e-18 $lvl1=1 $lvl2=2
CE32 C0:10 Mmn4:s 1.82579e-18 $lvl1=3 $lvl2=4
CE33 C0:15 VSS!:12 1.79901e-18 $lvl1=2 $lvl2=2
CE34 C0:10 VSS!:12 1.59109e-18 $lvl1=3 $lvl2=2
CE35 C0:18 VSS!:12 8.26838e-19 $lvl1=1 $lvl2=2
CE36 C0:16 VSS!:12 1.21981e-17 $lvl1=2 $lvl2=2
CE37 C0:16 VSS!:1 1.16585e-17 $lvl1=2 $lvl2=2
CE38 C0:14 VSS!:1 8.07246e-18 $lvl1=2 $lvl2=2
CE39 C0:10 VSS!:1 1.08611e-17 $lvl1=3 $lvl2=2
CE40 C0:12 VSS!:5 8.1064e-18 $lvl1=3 $lvl2=2
CE41 C0:12 VSS!:1 1.19472e-16 $lvl1=3 $lvl2=2
CE42 C0:20 VDD! 4.03509e-18 $lvl1=1 $lvl2=1
CE43 C0:18 VDD! 2.38707e-18 $lvl1=1 $lvl2=1
CE44 C0:20 VDD!:10 1.29207e-18 $lvl1=1 $lvl2=1
CE45 C0:8 VDD!:4 7.38699e-18 $lvl1=3 $lvl2=2
CE46 C0:14 Y:18 5.33886e-18 $lvl1=2 $lvl2=1
CE47 C0:15 Y:18 2.87452e-18 $lvl1=2 $lvl2=1
CE48 C0:17 Y 2.26821e-18 $lvl1=1 $lvl2=1
CE49 C0:15 Y 2.19584e-18 $lvl1=2 $lvl2=1
CE50 C0 Y:16 1.83387e-18 $lvl1=1 $lvl2=1
CE51 C0:10 Y 1.66554e-18 $lvl1=3 $lvl2=1
CE52 C0:18 Y:22 1.63914e-18 $lvl1=1 $lvl2=1
CE53 C0:14 Y:11 1.60735e-18 $lvl1=2 $lvl2=2
CE54 C0:17 Y:22 1.46213e-18 $lvl1=1 $lvl2=1
CE55 C0:16 Y 1.17879e-18 $lvl1=2 $lvl2=1
CE56 C0:16 Y:18 1.01823e-18 $lvl1=2 $lvl2=1
CE57 C0:10 Y:11 9.82497e-19 $lvl1=3 $lvl2=2
CE58 C0 Y:18 8.34049e-19 $lvl1=1 $lvl2=1
CE59 C0:20 Y:9 8.09044e-19 $lvl1=1 $lvl2=2
CE60 C0:18 Y:16 6.69332e-19 $lvl1=1 $lvl2=1
CE61 C0:8 Y:10 6.53898e-19 $lvl1=3 $lvl2=2
CE62 C0:20 Y:18 6.08887e-19 $lvl1=1 $lvl2=1
CE63 C0:20 Y:10 5.55009e-19 $lvl1=1 $lvl2=2
CE64 C0:20 Y:6 4.55105e-19 $lvl1=1 $lvl2=2
CE65 C0:10 Y:10 4.39675e-19 $lvl1=3 $lvl2=2
CE66 C0:20 Y:22 4.2836e-19 $lvl1=1 $lvl2=1
CE67 C0:16 Y:22 4.10454e-19 $lvl1=2 $lvl2=1
CE68 C0:12 Y:11 3.85841e-19 $lvl1=3 $lvl2=2
CE69 C0:10 Y:6 3.5311e-19 $lvl1=3 $lvl2=2
CE70 C0:10 Mmn5:d 3.34934e-19 $lvl1=3 $lvl2=4
CE71 C0:18 Y 3.62193e-17 $lvl1=1 $lvl2=1
CE72 C0:20 Y 1.55545e-17 $lvl1=1 $lvl2=1
CE73 C0:8 Y:6 2.55965e-16 $lvl1=3 $lvl2=2
CE74 C0:18 Y:18 1.20282e-17 $lvl1=1 $lvl2=1
CE75 C0:14 Y 1.18107e-17 $lvl1=2 $lvl2=1
CE76 C0:17 Y:18 2.29618e-17 $lvl1=1 $lvl2=1
CE77 C0 Y 1.88391e-17 $lvl1=1 $lvl2=1
CE78 C0:20 Y:16 5.35302e-17 $lvl1=1 $lvl2=1
CE79 C0:10 C1:10 4.29499e-18 $lvl1=3 $lvl2=3
CE80 C0:14 C1:16 2.69561e-18 $lvl1=2 $lvl2=2
CE81 C0:14 C1:10 2.14788e-18 $lvl1=2 $lvl2=3
CE82 C0:10 Mmn5:g 2.09019e-18 $lvl1=3 $lvl2=3
CE83 C0:8 C1:10 2.04177e-18 $lvl1=3 $lvl2=3
CE84 C0:14 C1:15 1.24673e-18 $lvl1=2 $lvl2=2
CE85 C0:10 C1:16 1.19996e-18 $lvl1=3 $lvl2=2
CE86 C0:20 C1 7.41604e-19 $lvl1=1 $lvl2=1
CE87 C0:14 Mmn5:g 7.39261e-19 $lvl1=2 $lvl2=3
CE88 C0:20 C1:19 6.44008e-19 $lvl1=1 $lvl2=1
ReE55 C0:17 C0:18 0.048077 $metal1  $L=0.1 $W=0.260000 $SI_W=0.26 $TYPE=10 $DIR=1 $LLX=2.170000 $LLY=1.330000 $URX=2.430000 $URY=1.430000 $lvl=1
ReE56 C0:18 C0 0.262019 $metal1  $L=0.545 $W=0.260000 $SI_W=0.26 $TYPE=10 $DIR=1 $LLX=2.170000 $LLY=1.430000 $URX=2.430000 $URY=1.975000 $lvl=1
ReE57 C0:17 C0:19 0.024457 $metal1  $L=0.045 $W=0.230000 $SI_W=0.23 $TYPE=10 $DIR=1 $LLX=2.185000 $LLY=1.285000 $URX=2.415000 $URY=1.330000 $lvl=1
ReE58 C0 C0:20 0.286058 $metal1  $L=0.595 $W=0.260000 $SI_W=0.26 $TYPE=10 $DIR=1 $LLX=2.170000 $LLY=1.975000 $URX=2.430000 $URY=2.570000 $lvl=1
RfE59 C0:13 C0:14 13.929413 $li  $L=0.185 $W=0.170000 $SI_W=0.17 $TYPE=10 $DIR=0 $LLX=2.655000 $LLY=1.345000 $URX=2.840000 $URY=1.515000 $lvl=2
RfE60 C0:14 C0:15 26.729412 $li  $L=0.355 $W=0.170000 $SI_W=0.17 $TYPE=10 $DIR=0 $LLX=2.300000 $LLY=1.345000 $URX=2.655000 $URY=1.515000 $lvl=2
RfE61 C0:15 C0:16 12.423529 $li  $L=0.165 $W=0.170000 $SI_W=0.17 $TYPE=10 $DIR=0 $LLX=2.135000 $LLY=1.345000 $URX=2.300000 $URY=1.515000 $lvl=2
RgE62 C0:8 Mmp4:g 282.773346 $poly  $L=0.88 $W=0.150000 $SI_W=0.15 $TYPE=10 $DIR=1 $LLX=2.640000 $LLY=3.015000 $URX=2.790000 $URY=3.895000 $lvl=3
RgE63 Mmp4:g C0:9 456.337952 $poly  $L=1.42 $W=0.150000 $SI_W=0.15 $TYPE=10 $DIR=1 $LLX=2.640000 $LLY=1.594500 $URX=2.790000 $URY=3.014500 $lvl=3
RgE64 C0:9 C0:10 38.857975 $poly  $L=0.1645 $W=0.270000 $SI_W=0.27 $TYPE=10 $DIR=1 $LLX=2.520000 $LLY=1.430000 $URX=2.790000 $URY=1.594500 $lvl=3
RgE65 C0:10 C0:11 29.410927 $poly  $L=0.1645 $W=0.270000 $SI_W=0.27 $TYPE=10 $DIR=1 $LLX=2.520000 $LLY=1.265500 $URX=2.790000 $URY=1.430000 $lvl=3
RgE66 C0:11 Mmn4:g 157.497955 $poly  $L=0.49 $W=0.150000 $SI_W=0.15 $TYPE=10 $DIR=1 $LLX=2.640000 $LLY=0.775000 $URX=2.790000 $URY=1.265000 $lvl=3
RgE67 Mmn4:g C0:12 170.306671 $poly  $L=0.53 $W=0.150000 $SI_W=0.15 $TYPE=10 $DIR=1 $LLX=2.640000 $LLY=0.245000 $URX=2.790000 $URY=0.775000 $lvl=3
RjE68 C0:15 C0:18 152.000000 $mcon  $L=0.17 $W=0.17 $A=0.0289 $VC=0 $SAVL=0 $SAVC=0 $SI_A=0.0289 $COVER_DIR=0 $LLX=0.000000 $LLY=0.000000 $URX=0.170000 $URY=0.170000 $lvl=6
RiE69 C0:10 C0:14 15.000000 $licon  $L=0.17 $W=0.17 $A=0.0289 $VC=0 $SAVL=0 $SAVC=0 $SI_A=0.0289 $COVER_DIR=0 $LLX=0.000000 $LLY=0.000000 $URX=0.170000 $URY=0.170000 $lvl=7
*
*|NET net147 4.57228e-16
*|I (Mmn3:s Mmn3 s X 0 1.4105 0.7750) // $llx=1.4105 $lly=0.7750 $urx=1.4105 $ury=0.7750 $lvl=4
*|I (Mmn2:d Mmn2 d X 0 1.6895 0.7750) // $llx=1.6895 $lly=0.7750 $urx=1.6895 $ury=0.7750 $lvl=4
*|S (net147 1.5500 1.1545) // $llx=1.5500 $lly=1.1545 $urx=1.5500 $ury=1.1545 $lvl=2
*|S (net147:3 1.5500 0.7750) // $llx=1.5500 $lly=0.7750 $urx=1.5500 $ury=0.7750 $lvl=2
*|S (net147:4 1.5500 0.3950) // $llx=1.5500 $lly=0.3950 $urx=1.5500 $ury=0.3950 $lvl=2
CL1 Mmn3:s VSS! 1.88765e-18 $lvl=4
CL2 net147:3 VSS! 6.46957e-18 $lvl=2
CL3 net147:4 VSS! 9.37006e-19 $lvl=2
CL4 net147 VSS! 4.3597e-18 $lvl=2
CL5 Mmn3:s VSS!:5 1.66768e-18 $lvl1=4 $lvl2=2
CL6 net147:3 VSS!:6 6.8743e-19 $lvl1=2 $lvl2=4