*
*|DSPF 1.5
*
*|DATE "Wed Jan  8 23:32:03 2025"
*|VENDOR "Cadence Design Systems"
*|PROGRAM "Cadence Quantus Extraction"
*|VERSION "22.1.0-p089 Linux 64 bit - (Thu Jan 19 11:47:08 PST 2023)"
*|DESIGN AOI21X2_HS
*|DIVIDER /
*|DELIMITER :
*|DeviceFingerDelim "@"
*|BUSBIT []
*|GLOBAL_TEMPERATURE 25
*|OPERATING_TEMPERATURE 25

** *VIA_COVERAGE_CODES
** *index FF FS FP FU SF SS SP SU PF PS PP PU UF US UP UU X_by_Y
** * "FF" stands for Full landing and Full coverage
** *0 0 0 0 0 0 0 0 0 0 0 0 0 0 0 0 0
** *1 0 0 0 0 0 0 0 0 0 0 0 0 0 0 0 1 1x1
** *2 0 0 0 0 0 0 0 0 0 0 0 0 0 0 1 0 1x1
** *3 0 0 0 0 0 0 0 0 0 0 0 0 0 1 0 0 1x1
** *4 0 0 0 0 0 0 0 0 0 0 0 0 1 0 0 0 1x1
** *5 0 0 0 0 0 0 0 0 0 0 0 1 0 0 0 0 1x1
** *6 0 0 0 0 0 0 0 0 0 0 1 0 0 0 0 0 1x1
** *7 0 0 0 0 0 0 0 0 0 1 0 0 0 0 0 0 1x1
** *8 0 0 0 0 0 0 0 0 1 0 0 0 0 0 0 0 1x1
** *9 0 0 0 0 0 0 0 1 0 0 0 0 0 0 0 0 1x1
** *10 0 0 0 0 0 0 1 0 0 0 0 0 0 0 0 0 1x1
** *11 0 0 0 0 0 1 0 0 0 0 0 0 0 0 0 0 1x1
** *12 0 0 0 0 1 0 0 0 0 0 0 0 0 0 0 0 1x1
** *13 0 0 0 1 0 0 0 0 0 0 0 0 0 0 0 0 1x1
** *14 0 0 1 0 0 0 0 0 0 0 0 0 0 0 0 0 1x1
** *15 0 1 0 0 0 0 0 0 0 0 0 0 0 0 0 0 1x1
** *16 1 0 0 0 0 0 0 0 0 0 0 0 0 0 0 0 1x1

** *RESISTOR_TYPES
** *1 SHORTING_ELEMENT
** *2 PRES_NG
** *3 PRES_PG
** *4 PRES_NF
** *5 PRES_PF
** *6 TCN_NDIFF
** *7 TCN_PDIFF
** *8 TCN_NFIELD
** *9 TCN_PFIELD
** *10 QUALITY_EXTRACTED
** *11 GCNLAND
** *12 TCNLAND
** *13 DUMMY
** *14 RSD
** *15 BRIDGE

** *RESISTOR_CURRENT_DIRECTION
** *0 HORIZONTAL
** *1 VERTICAL
** *2 45 DEGREE

** QRC_TECH_DIR /vols/wfo_devel/projects/reference_SKY130/tech/sky130_release_0.0.4/quantus/extraction/typical 
** HIERARCHICAL_SPLIT_PINS_DELIMITER '%'
** caps2d version: 10
*
.SUBCKT  AOI21X2_HS A0 A1 B0 Y
*
*Net Section
*
*|GROUND_NET VSS!
*
*LAYER_MAP
*0 none
*1 metal1
*2 li
*3 poly
*4 diff
*5 licon_diff
*6 mcon
*7 licon
*8 FOX

*|NET B0 2.02682e-15
*|P (B0 X 0 0.4750 1.9150) // $llx=0.4750 $lly=1.9150 $urx=0.4750 $ury=1.9150 $lvl=1
*|I (Mmp2:g Mmp2 g X 0 0.4750 3.0150) // $llx=0.4750 $lly=3.0150 $urx=0.4750 $ury=3.0150 $lvl=3
*|I (Mmp2@1:g Mmp2@1 g X 0 0.9050 3.0150) // $llx=0.9050 $lly=3.0150 $urx=0.9050 $ury=3.0150 $lvl=3
*|I (Mmn2:g Mmn2 g X 0 0.4750 0.9700) // $llx=0.4750 $lly=0.9700 $urx=0.4750 $ury=0.9700 $lvl=3
*|I (Mmn2@1:g Mmn2@1 g X 0 0.9050 0.9700) // $llx=0.9050 $lly=0.9700 $urx=0.9050 $ury=0.9700 $lvl=3
*|S (B0:15 0.9050 3.8950) // $llx=0.9050 $lly=3.8950 $urx=0.9050 $ury=3.8950 $lvl=3
*|S (B0:16 0.9050 1.8450) // $llx=0.9050 $lly=1.8450 $urx=0.9050 $ury=1.8450 $lvl=3
*|S (B0:17 0.6450 1.8450) // $llx=0.6450 $lly=1.8450 $urx=0.6450 $ury=1.8450 $lvl=3
*|S (B0:18 0.4750 1.8450) // $llx=0.4750 $lly=1.8450 $urx=0.4750 $ury=1.8450 $lvl=3
*|S (B0:19 0.4300 1.7050) // $llx=0.4300 $lly=1.7050 $urx=0.4300 $ury=1.7050 $lvl=3
*|S (B0:20 0.9050 0.4400) // $llx=0.9050 $lly=0.4400 $urx=0.9050 $ury=0.4400 $lvl=3
*|S (B0:21 0.4300 1.9845) // $llx=0.4300 $lly=1.9845 $urx=0.4300 $ury=1.9845 $lvl=3
*|S (B0:22 0.4750 3.8950) // $llx=0.4750 $lly=3.8950 $urx=0.4750 $ury=3.8950 $lvl=3
*|S (B0:23 0.4750 0.4400) // $llx=0.4750 $lly=0.4400 $urx=0.4750 $ury=0.4400 $lvl=3
*|S (B0:24 0.6450 1.8450) // $llx=0.6450 $lly=1.8450 $urx=0.6450 $ury=1.8450 $lvl=2
*|S (B0:25 0.4600 1.8450) // $llx=0.4600 $lly=1.8450 $urx=0.4600 $ury=1.8450 $lvl=2
*|S (B0:26 0.4600 2.5100) // $llx=0.4600 $lly=2.5100 $urx=0.4600 $ury=2.5100 $lvl=1
*|S (B0:27 0.4600 1.8450) // $llx=0.4600 $lly=1.8450 $urx=0.4600 $ury=1.8450 $lvl=1
*|S (B0:28 0.4600 1.2700) // $llx=0.4600 $lly=1.2700 $urx=0.4600 $ury=1.2700 $lvl=1
CC1 Mmn2@1:g VSS! 2.54803e-18 $lvl=3
CC2 Mmn2:g VSS! 2.27134e-18 $lvl=3
CC3 Mmp2@1:g VSS! 4.46535e-18 $lvl=3
CC4 B0:26 VSS! 1.02053e-17 $lvl=1
CC5 B0:28 VSS! 9.9676e-18 $lvl=1
CC6 B0:22 VSS! 4.06392e-18 $lvl=3
CC7 B0:24 VSS! 5.79893e-18 $lvl=2
CC8 B0:25 VSS! 3.78757e-18 $lvl=2
CC9 B0:17 VSS! 2.41156e-17 $lvl=3
CC10 B0 VSS! 6.49485e-18 $lvl=1
CC11 B0:26 net70:5 6.1241e-18 $lvl1=1 $lvl2=2
CC12 B0:26 net70:32 5.14549e-18 $lvl1=1 $lvl2=1
CC13 B0:17 net70 4.0948e-18 $lvl1=3 $lvl2=2
CC14 B0:24 net70:5 3.20503e-18 $lvl1=2 $lvl2=2
CC15 B0:24 net70:10 3.04124e-18 $lvl1=2 $lvl2=2
CC16 B0:17 net70:5 2.65225e-18 $lvl1=3 $lvl2=2
CC17 B0:25 net70:5 2.55538e-18 $lvl1=2 $lvl2=2
CC18 B0:17 net70:6 2.21722e-18 $lvl1=3 $lvl2=2
CC19 B0:24 net70 1.9595e-18 $lvl1=2 $lvl2=2
CC20 B0:17 net70:10 1.86375e-18 $lvl1=3 $lvl2=2
CC21 B0:17 Mmp2:s 1.64308e-18 $lvl1=3 $lvl2=4
CC22 B0:25 net70 1.4789e-18 $lvl1=2 $lvl2=2
CC23 B0:28 net70 1.06308e-18 $lvl1=1 $lvl2=2
CC24 B0:22 net70:5 9.50176e-19 $lvl1=3 $lvl2=2
CC25 Mmp2@1:g net70:10 8.00296e-19 $lvl1=3 $lvl2=2
CC26 B0 net70 7.51642e-19 $lvl1=1 $lvl2=2
CC27 B0:28 net70:32 7.49804e-19 $lvl1=1 $lvl2=1
CC28 B0:24 net70:6 7.47777e-19 $lvl1=2 $lvl2=2
CC29 B0:22 net70 2.52822e-16 $lvl1=3 $lvl2=2
CC30 Mmp2@1:g net70:6 2.51274e-16 $lvl1=3 $lvl2=2
CC31 B0:26 net70 1.11837e-17 $lvl1=1 $lvl2=2
CC32 B0:17 VSS!:16 6.24423e-18 $lvl1=3 $lvl2=2
CC33 B0:24 VSS!:16 4.28579e-18 $lvl1=2 $lvl2=2
CC34 Mmn2@1:g VSS!:7 4.04753e-18 $lvl1=3 $lvl2=2
CC35 B0:17 VSS!:13 3.51567e-18 $lvl1=3 $lvl2=2
CC36 Mmn2:g VSS!:8 3.50064e-18 $lvl1=3 $lvl2=2
CC37 B0:25 VSS!:16 3.44796e-18 $lvl1=2 $lvl2=2
CC38 B0:24 VSS!:13 2.93709e-18 $lvl1=2 $lvl2=2
CC39 B0:28 VSS!:19 2.38248e-18 $lvl1=1 $lvl2=1
CC40 B0:28 VSS!:18 2.36033e-18 $lvl1=1 $lvl2=1
CC41 Mmn2@1:g VSS!:8 1.57916e-18 $lvl1=3 $lvl2=2
CC42 B0:26 VSS!:16 1.48018e-18 $lvl1=1 $lvl2=2
CC43 B0 VSS!:16 1.43013e-18 $lvl1=1 $lvl2=2
CC44 Mmn2:g VSS!:7 1.1335e-18 $lvl1=3 $lvl2=2
CC45 B0:17 Mmn2:s 1.12414e-18 $lvl1=3 $lvl2=4
CC46 B0:26 VSS!:18 1.04258e-18 $lvl1=1 $lvl2=1
CC47 Mmn2@1:g VSS!:16 1.02175e-18 $lvl1=3 $lvl2=2
CC48 Mmn2:g VSS!:16 1.29351e-16 $lvl1=3 $lvl2=2
CC49 Mmn2@1:g VSS!:13 1.29956e-16 $lvl1=3 $lvl2=2
CC50 B0:28 VSS!:16 1.38629e-17 $lvl1=1 $lvl2=2
CC51 B0:17 VDD! 8.5744e-18 $lvl1=3 $lvl2=1
CC52 Mmp2@1:g VDD!:4 6.72334e-18 $lvl1=3 $lvl2=2
CC53 B0:22 VDD!:5 6.50131e-18 $lvl1=3 $lvl2=2
CC54 B0 VDD! 5.63245e-18 $lvl1=1 $lvl2=1
CC55 B0:24 VDD! 3.04064e-18 $lvl1=2 $lvl2=1
CC56 B0:25 VDD! 2.03198e-18 $lvl1=2 $lvl2=1
CC57 B0:26 VDD! 1.52913e-17 $lvl1=1 $lvl2=1
CC58 B0:28 VDD! 1.3802e-17 $lvl1=1 $lvl2=1
CC59 B0:28 Y:9 8.23057e-18 $lvl1=1 $lvl2=2
CC60 B0:17 Y:9 7.32818e-18 $lvl1=3 $lvl2=2
CC61 B0:24 Y:9 5.17879e-18 $lvl1=2 $lvl2=2
CC62 B0:26 Y:3 4.92928e-18 $lvl1=1 $lvl2=2
CC63 B0:17 Y:5 4.70683e-18 $lvl1=3 $lvl2=2
CC64 B0:17 Y:3 4.6037e-18 $lvl1=3 $lvl2=2
CC65 B0:24 Y:5 4.39085e-18 $lvl1=2 $lvl2=2
CC66 B0:26 Y:5 4.1272e-18 $lvl1=1 $lvl2=2
CC67 B0:25 Y 3.9545e-18 $lvl1=2 $lvl2=1
CC68 B0:25 Y:5 2.03266e-18 $lvl1=2 $lvl2=2
CC69 B0:25 Y:9 2.005e-18 $lvl1=2 $lvl2=2
CC70 B0:17 Y 1.8111e-18 $lvl1=3 $lvl2=1
CC71 B0:26 Y:4 1.77511e-18 $lvl1=1 $lvl2=2
CC72 B0:24 Y:3 1.46903e-18 $lvl1=2 $lvl2=2
CC73 B0:26 Y:24 1.38311e-18 $lvl1=1 $lvl2=1
CC74 B0:17 Mmp2:d 1.35721e-18 $lvl1=3 $lvl2=4
CC75 B0 Y:24 1.26982e-18 $lvl1=1 $lvl2=1
CC76 B0:17 Mmn2:d 1.20651e-18 $lvl1=3 $lvl2=4
CC77 B0:24 Y:24 1.0578e-18 $lvl1=2 $lvl2=1
CC78 B0:28 Y:24 3.57435e-17 $lvl1=1 $lvl2=1
CC79 B0:26 Y 3.35235e-17 $lvl1=1 $lvl2=1
CC80 B0:28 Y 2.79159e-17 $lvl1=1 $lvl2=1
CC81 B0:22 Y:3 2.4958e-16 $lvl1=3 $lvl2=2
CC82 Mmn2@1:g Y:9 1.30259e-16 $lvl1=3 $lvl2=2
CC83 B0:26 Y:26 3.84462e-17 $lvl1=1 $lvl2=1
CC84 Mmn2:g Y:9 1.27876e-16 $lvl1=3 $lvl2=2
CC85 Mmp2@1:g Y:3 2.49896e-16 $lvl1=3 $lvl2=2
CC86 B0 Y 2.35431e-17 $lvl1=1 $lvl2=1
CC87 B0:24 Y 1.2758e-17 $lvl1=2 $lvl2=1
ReC39 B0:26 B0 0.286058 $metal1  $L=0.595 $W=0.260000 $SI_W=0.26 $TYPE=10 $DIR=1 $LLX=0.330000 $LLY=1.915000 $URX=0.590000 $URY=2.510000 $lvl=1
ReC40 B0 B0:27 0.033654 $metal1  $L=0.07 $W=0.260000 $SI_W=0.26 $TYPE=10 $DIR=1 $LLX=0.330000 $LLY=1.845000 $URX=0.590000 $URY=1.915000 $lvl=1
ReC41 B0:27 B0:28 0.276442 $metal1  $L=0.575 $W=0.260000 $SI_W=0.26 $TYPE=10 $DIR=1 $LLX=0.330000 $LLY=1.270000 $URX=0.590000 $URY=1.845000 $lvl=1
RfC42 B0:24 B0:25 13.929411 $li  $L=0.185 $W=0.170000 $SI_W=0.17 $TYPE=10 $DIR=0 $LLX=0.460000 $LLY=1.760000 $URX=0.645000 $URY=1.930000 $lvl=2
RgC43 B0:15 Mmp2@1:g 282.773346 $poly  $L=0.88 $W=0.150000 $SI_W=0.15 $TYPE=10 $DIR=1 $LLX=0.830000 $LLY=3.015000 $URX=0.980000 $URY=3.895000 $lvl=3
RgC44 Mmp2@1:g B0:16 375.879669 $poly  $L=1.16975 $W=0.150000 $SI_W=0.15 $TYPE=10 $DIR=1 $LLX=0.830000 $LLY=1.845000 $URX=0.980000 $URY=3.015000 $lvl=3
RgC45 B0:16 B0:17 44.800179 $poly  $L=0.26025 $W=0.280000 $SI_W=0.28 $TYPE=10 $DIR=0 $LLX=0.645000 $LLY=1.705000 $URX=0.905000 $URY=1.985000 $lvl=3
RgC46 B0:17 B0:18 29.221249 $poly  $L=0.16975 $W=0.280000 $SI_W=0.28 $TYPE=10 $DIR=0 $LLX=0.475000 $LLY=1.705000 $URX=0.645000 $URY=1.985000 $lvl=3
RgC47 B0:18 B0:19 28.130711 $poly  $L=0.13975 $W=0.240000 $SI_W=0.24 $TYPE=10 $DIR=1 $LLX=0.310000 $LLY=1.705000 $URX=0.550000 $URY=1.845000 $lvl=3
RgC48 B0:19 Mmn2:g 236.230194 $poly  $L=0.735 $W=0.150000 $SI_W=0.15 $TYPE=10 $DIR=1 $LLX=0.400000 $LLY=0.970000 $URX=0.550000 $URY=1.705000 $lvl=3
RgC49 B0:16 Mmn2@1:g 281.246979 $poly  $L=0.87525 $W=0.150000 $SI_W=0.15 $TYPE=10 $DIR=1 $LLX=0.830000 $LLY=0.970000 $URX=0.980000 $URY=1.845000 $lvl=3
RgC50 Mmn2@1:g B0:20 170.306671 $poly  $L=0.53 $W=0.150000 $SI_W=0.15 $TYPE=10 $DIR=1 $LLX=0.830000 $LLY=0.440000 $URX=0.980000 $URY=0.970000 $lvl=3
RgC51 B0:18 B0:21 28.030294 $poly  $L=0.13925 $W=0.240000 $SI_W=0.24 $TYPE=10 $DIR=1 $LLX=0.310000 $LLY=1.845500 $URX=0.550000 $URY=1.984500 $lvl=3
RgC52 B0:21 Mmp2:g 331.023560 $poly  $L=1.03 $W=0.150000 $SI_W=0.15 $TYPE=10 $DIR=1 $LLX=0.400000 $LLY=1.984500 $URX=0.550000 $URY=3.014500 $lvl=3
RgC53 Mmp2:g B0:22 282.773346 $poly  $L=0.88 $W=0.150000 $SI_W=0.15 $TYPE=10 $DIR=1 $LLX=0.400000 $LLY=3.015000 $URX=0.550000 $URY=3.895000 $lvl=3
RgC54 Mmn2:g B0:23 170.306671 $poly  $L=0.53 $W=0.150000 $SI_W=0.15 $TYPE=10 $DIR=1 $LLX=0.400000 $LLY=0.440000 $URX=0.550000 $URY=0.970000 $lvl=3
RjC55 B0:25 B0:27 152.000000 $mcon  $L=0.17 $W=0.17 $A=0.0289 $VC=0 $SAVL=0 $SAVC=0 $SI_A=0.0289 $COVER_DIR=0 $LLX=0.000000 $LLY=0.000000 $URX=0.170000 $URY=0.170000 $lvl=6
RiC56 B0:17 B0:24 7.500000 $licon  $A=0.0578 $VC=0 $SAVL=0 $SAVC=0 $SI_A=0.0578 $COVER_DIR=0 $LLX=0.000000 $LLY=0.000000 $URX=-0.057800 $URY=-2.000000 $lvl=7
*
*|NET net74 1.34441e-15
*|I (Mmn1:s Mmn1 s X 0 2.7905 0.9700) // $llx=2.7905 $lly=0.9700 $urx=2.7905 $ury=0.9700 $lvl=4
*|I (Mmn1@1:s Mmn1@1 s X 0 3.0695 0.9700) // $llx=3.0695 $lly=0.9700 $urx=3.0695 $ury=0.9700 $lvl=4
*|I (Mmn0:d Mmn0 d X 0 1.4105 0.9700) // $llx=1.4105 $lly=0.9700 $urx=1.4105 $ury=0.9700 $lvl=4
*|I (Mmn0@1:d Mmn0@1 d X 0 1.6895 0.9700) // $llx=1.6895 $lly=0.9700 $urx=1.6895 $ury=0.9700 $lvl=4
*|S (net74 1.5500 1.3500) // $llx=1.5500 $lly=1.3500 $urx=1.5500 $ury=1.3500 $lvl=2
*|S (net74:2 1.5500 1.1850) // $llx=1.5500 $lly=1.1850 $urx=1.5500 $ury=1.1850 $lvl=2
*|S (net74:4 1.5500 0.9700) // $llx=1.5500 $lly=0.9700 $urx=1.5500 $ury=0.9700 $lvl=2
*|S (net74:5 1.5500 0.5900) // $llx=1.5500 $lly=0.5900 $urx=1.5500 $ury=0.5900 $lvl=2
*|S (net74:6 2.9250 1.1850) // $llx=2.9250 $lly=1.1850 $urx=2.9250 $ury=1.1850 $lvl=2
*|S (net74:7 2.9275 1.0200) // $llx=2.9275 $lly=1.0200 $urx=2.9275 $ury=1.0200 $lvl=2
*|S (net74:9 2.9300 0.9700) // $llx=2.9300 $lly=0.9700 $urx=2.9300 $ury=0.9700 $lvl=2
*|S (net74:10 2.9300 0.5900) // $llx=2.9300 $lly=0.5900 $urx=2.9300 $ury=0.5900 $lvl=2
*|S (net74:11 3.0700 1.1850) // $llx=3.0700 $lly=1.1850 $urx=3.0700 $ury=1.1850 $lvl=1
*|S (net74:12 2.9250 1.1850) // $llx=2.9250 $lly=1.1850 $urx=2.9250 $ury=1.1850 $lvl=1
*|S (net74:13 1.5500 1.1850) // $llx=1.5500 $lly=1.1850 $urx=1.5500 $ury=1.1850 $lvl=1
*|S (net74:14 1.4050 1.1850) // $llx=1.4050 $lly=1.1850 $urx=1.4050 $ury=1.1850 $lvl=1
CH1 Mmn0:d VSS! 1.04948e-18 $lvl=4
CH2 Mmn1:s VSS! 1.97567e-18 $lvl=4
CH3 net74:11 VSS! 9.18595e-18 $lvl=1
CH4 net74:14 VSS! 1.08773e-17 $lvl=1
CH5 net74:7 VSS! 6.16755e-18 $lvl=2
CH6 net74:5 VSS! 2.60384e-18 $lvl=2
CH7 net74:2 VSS! 2.53812e-18 $lvl=2
CH8 net74:6 VSS! 9.20941e-18 $lvl=2
CH9 net74 VSS! 8.15591e-18 $lvl=2
CH10 net74:7 VSS!:7 6.04152e-18 $lvl1=2 $lvl2=2
CH11 net74:7 VSS!:10 5.5318e-18 $lvl1=2 $lvl2=2
CH12 net74 VSS!:7 4.58824e-18 $lvl1=2 $lvl2=2
CH13 net74:14 VSS!:18 3.47196e-18 $lvl1=1 $lvl2=1
CH14 net74:11 VSS!:1 3.35523e-18 $lvl1=1 $lvl2=2
CH15 net74:11 VSS!:18 3.11322e-18 $lvl1=1 $lvl2=1
CH16 net74:2 VSS!:13 2.77998e-18 $lvl1=2 $lvl2=2
CH17 net74:7 VSS!:18 2.65292e-18 $lvl1=2 $lvl2=1
CH18 net74:14 VSS!:13 2.51403e-18 $lvl1=1 $lvl2=2
CH19 net74:2 VSS!:1 2.51187e-18 $lvl1=2 $lvl2=2
CH20 net74:7 VSS!:4 1.84625e-18 $lvl1=2 $lvl2=2
CH21 net74:5 VSS!:18 1.83131e-18 $lvl1=2 $lvl2=1
CH22 Mmn0:d VSS!:7 1.69547e-18 $lvl1=4 $lvl2=2
CH23 net74:5 VSS!:4 1.01706e-18 $lvl1=2 $lvl2=2
CH24 Mmn0:d VSS!:13 9.80013e-19 $lvl1=4 $lvl2=2
CH25 Mmn1:s VSS!:10 8.95174e-19 $lvl1=4 $lvl2=2
CH26 net74:7 VSS!:5 8.05149e-19 $lvl1=2 $lvl2=4
CH27 net74:11 VSS!:17 7.95068e-19 $lvl1=1 $lvl2=1
CH28 net74:6 VSS!:1 7.20044e-19 $lvl1=2 $lvl2=2
CH29 net74:14 VSS!:1 1.3926e-17 $lvl1=1 $lvl2=2
CH30 net74 VSS!:1 5.02023e-17 $lvl1=2 $lvl2=2
CH31 net74 VSS!:13 4.89129e-17 $lvl1=2 $lvl2=2
CH32 net74:5 VSS!:7 7.84192e-18 $lvl1=2 $lvl2=2
CH33 net74:5 VSS!:1 7.33584e-18 $lvl1=2 $lvl2=2
CH34 net74:5 VSS!:13 7.73227e-18 $lvl1=2 $lvl2=2
ReH165 net74:11 net74:12 0.078804 $metal1  $L=0.145 $W=0.230000 $SI_W=0.23 $TYPE=10 $DIR=0 $LLX=2.925000 $LLY=1.070000 $URX=3.070000 $URY=1.300000 $lvl=1
ReH166 net74:12 net74:13 0.747283 $metal1  $L=1.375 $W=0.230000 $SI_W=0.23 $TYPE=10 $DIR=0 $LLX=1.550000 $LLY=1.070000 $URX=2.925000 $URY=1.300000 $lvl=1
ReH167 net74:13 net74:14 0.078804 $metal1  $L=0.145 $W=0.230000 $SI_W=0.23 $TYPE=10 $DIR=0 $LLX=1.405000 $LLY=1.070000 $URX=1.550000 $URY=1.300000 $lvl=1
RfH168 net74 net74:2 12.423529 $li  $L=0.165 $W=0.170000 $SI_W=0.17 $TYPE=10 $DIR=1 $LLX=1.465000 $LLY=1.185000 $URX=1.635000 $URY=1.350000 $lvl=2
RfH169 net74:2 net74:4 16.188236 $li  $L=0.215 $W=0.170000 $SI_W=0.17 $TYPE=10 $DIR=1 $LLX=1.465000 $LLY=0.970000 $URX=1.635000 $URY=1.185000 $lvl=2
RfH170 net74:4 net74:5 28.611765 $li  $L=0.38 $W=0.170000 $SI_W=0.17 $TYPE=10 $DIR=1 $LLX=1.465000 $LLY=0.590000 $URX=1.635000 $URY=0.970000 $lvl=2
RfH171 net74:6 net74:7 12.068571 $li  $L=0.165 $W=0.175000 $SI_W=0.175 $TYPE=10 $DIR=1 $LLX=2.840000 $LLY=1.020000 $URX=3.015000 $URY=1.185000 $lvl=2
RfH172 net74:7 net74:9 3.657143 $li  $L=0.05 $W=0.175000 $SI_W=0.175 $TYPE=10 $DIR=1 $LLX=2.840000 $LLY=0.970000 $URX=3.015000 $URY=1.020000 $lvl=2
RfH173 net74:9 net74:10 28.611765 $li  $L=0.38 $W=0.170000 $SI_W=0.17 $TYPE=10 $DIR=1 $LLX=2.845000 $LLY=0.590000 $URX=3.015000 $URY=0.970000 $lvl=2
RhH174 Mmn0:d net74:4 7.500000 $licon_diff  $A=0.0578 $VC=0 $SAVL=0 $SAVC=0 $SI_A=0.0578 $COVER_DIR=0 $LLX=0.000000 $LLY=0.000000 $URX=-0.057800 $URY=-2.000000 $lvl=5
RhH175 Mmn1:s net74:9 7.500000 $licon_diff  $A=0.0578 $VC=0 $SAVL=0 $SAVC=0 $SI_A=0.0578 $COVER_DIR=0 $LLX=0.000000 $LLY=0.000000 $URX=-0.057800 $URY=-2.000000 $lvl=5
RjH176 net74:6 net74:12 152.000000 $mcon  $L=0.17 $W=0.17 $A=0.0289 $VC=0 $SAVL=0 $SAVC=0 $SI_A=0.0289 $COVER_DIR=0 $LLX=0.000000 $LLY=0.000000 $URX=0.170000 $URY=0.170000 $lvl=6
RjH177 net74:2 net74:13 152.000000 $mcon  $L=0.17 $W=0.17 $A=0.0289 $VC=0 $SAVL=0 $SAVC=0 $SI_A=0.0289 $COVER_DIR=0 $LLX=0.000000 $LLY=0.000000 $URX=0.170000 $URY=0.170000 $lvl=6
RmwH178 Mmn1@1:s Mmn1:s 0.001000 $diff $W=1000000 $SI_W=1000000 $TYPE=1 $DIR=0
RmwH179 Mmn0@1:d Mmn0:d 0.001000 $diff $W=1000000 $SI_W=1000000 $TYPE=1 $DIR=0
*
*|NET Y 3.05434e-15
*|P (Y X 0 0.9350 1.9150) // $llx=0.9350 $lly=1.9150 $urx=0.9350 $ury=1.9150 $lvl=1
*|I (Mmp2:d Mmp2 d X 0 0.5505 3.0150) // $llx=0.5505 $lly=3.0150 $urx=0.5505 $ury=3.0150 $lvl=4
*|I (Mmp2@1:d Mmp2@1 d X 0 0.8295 3.0150) // $llx=0.8295 $lly=3.0150 $urx=0.8295 $ury=3.0150 $lvl=4
*|I (Mmn1:d Mmn1 d X 0 2.6395 0.9700) // $llx=2.6395 $lly=0.9700 $urx=2.6395 $ury=0.9700 $lvl=4
*|I (Mmn1@1:d Mmn1@1 d X 0 3.2205 0.9700) // $llx=3.2205 $lly=0.9700 $urx=3.2205 $ury=0.9700 $lvl=4
*|I (Mmn2:d Mmn2 d X 0 0.5505 0.9700) // $llx=0.5505 $lly=0.9700 $urx=0.5505 $ury=0.9700 $lvl=4
*|I (Mmn2@1:d Mmn2@1 d X 0 0.8295 0.9700) // $llx=0.8295 $lly=0.9700 $urx=0.8295 $ury=0.9700 $lvl=4
*|S (Y:1 0.6900 3.7450) // $llx=0.6900 $lly=3.7450 $urx=0.6900 $ury=3.7450 $lvl=2
*|S (Y:3 0.6900 3.0150) // $llx=0.6900 $lly=3.0150 $urx=0.6900 $ury=3.0150 $lvl=2
*|S (Y:4 0.6900 2.9000) // $llx=0.6900 $lly=2.9000 $urx=0.6900 $ury=2.9000 $lvl=2
*|S (Y:5 0.6900 2.2850) // $llx=0.6900 $lly=2.2850 $urx=0.6900 $ury=2.2850 $lvl=2
*|S (Y:6 0.6900 1.3500) // $llx=0.6900 $lly=1.3500 $urx=0.6900 $ury=1.3500 $lvl=2
*|S (Y:8 0.6900 0.9700) // $llx=0.6900 $lly=0.9700 $urx=0.6900 $ury=0.9700 $lvl=2
*|S (Y:9 0.6900 0.7700) // $llx=0.6900 $lly=0.7700 $urx=0.6900 $ury=0.7700 $lvl=2
*|S (Y:10 0.6900 0.5900) // $llx=0.6900 $lly=0.5900 $urx=0.6900 $ury=0.5900 $lvl=2
*|S (Y:11 2.5000 1.3500) // $llx=2.5000 $lly=1.3500 $urx=2.5000 $ury=1.3500 $lvl=2
*|S (Y:13 2.5000 0.9700) // $llx=2.5000 $lly=0.9700 $urx=2.5000 $ury=0.9700 $lvl=2
*|S (Y:14 2.5000 0.7550) // $llx=2.5000 $lly=0.7550 $urx=2.5000 $ury=0.7550 $lvl=2
*|S (Y:15 3.3600 1.3500) // $llx=3.3600 $lly=1.3500 $urx=3.3600 $ury=1.3500 $lvl=2
*|S (Y:17 3.3600 0.9700) // $llx=3.3600 $lly=0.9700 $urx=3.3600 $ury=0.9700 $lvl=2
*|S (Y:18 3.3600 0.9350) // $llx=3.3600 $lly=0.9350 $urx=3.3600 $ury=0.9350 $lvl=2
*|S (Y:19 3.3600 1.2300) // $llx=3.3600 $lly=1.2300 $urx=3.3600 $ury=1.2300 $lvl=1
*|S (Y:20 3.3600 0.9350) // $llx=3.3600 $lly=0.9350 $urx=3.3600 $ury=0.9350 $lvl=1
*|S (Y:21 3.2150 0.8525) // $llx=3.2150 $lly=0.8525 $urx=3.2150 $ury=0.8525 $lvl=1
*|S (Y:22 2.5000 0.7550) // $llx=2.5000 $lly=0.7550 $urx=2.5000 $ury=0.7550 $lvl=1
*|S (Y:23 0.9200 0.7700) // $llx=0.9200 $lly=0.7700 $urx=0.9200 $ury=0.7700 $lvl=1
*|S (Y:24 0.6900 0.7700) // $llx=0.6900 $lly=0.7700 $urx=0.6900 $ury=0.7700 $lvl=1
*|S (Y:25 0.9200 2.9000) // $llx=0.9200 $lly=2.9000 $urx=0.9200 $ury=2.9000 $lvl=1
*|S (Y:26 0.6900 2.9000) // $llx=0.6900 $lly=2.9000 $urx=0.6900 $ury=2.9000 $lvl=1
CD1 Mmn2:d VSS! 1.50947e-18 $lvl=4
CD2 Mmn1@1:d VSS! 2.46512e-18 $lvl=4
CD3 Mmn1:d VSS! 2.64908e-18 $lvl=4
CD4 Mmp2:d VSS! 1.74237e-18 $lvl=4
CD5 Y:26 VSS! 9.89738e-18 $lvl=1
CD6 Y:24 VSS! 9.30257e-18 $lvl=1
CD7 Y:22 VSS! 6.2114e-18 $lvl=1
CD8 Y:19 VSS! 8.07127e-18 $lvl=1
CD9 Y:15 VSS! 2.07047e-17 $lvl=2
CD10 Y:10 VSS! 2.2671e-18 $lvl=2
CD11 Y:3 VSS! 5.45531e-18 $lvl=2
CD12 Y:5 VSS! 4.06784e-18 $lvl=2
CD13 Y:9 VSS! 6.03847e-18 $lvl=2
CD14 Y:4 VSS! 1.31883e-18 $lvl=2
CD15 Y:14 VSS! 1.36841e-17 $lvl=2
CD16 Y:18 VSS! 4.3522e-18 $lvl=2
CD17 Y VSS! 7.97543e-18 $lvl=1
CD18 Y:18 net74:6 5.59964e-18 $lvl1=2 $lvl2=2
CD19 Y net74:14 4.54537e-18 $lvl1=1 $lvl2=1
CD20 Y:24 net74:5 4.49886e-18 $lvl1=1 $lvl2=2
CD21 Y:24 net74:2 4.27473e-18 $lvl1=1 $lvl2=2
CD22 Y:19 net74:6 4.09634e-18 $lvl1=1 $lvl2=2
CD23 Y:18 net74:7 3.545e-18 $lvl1=2 $lvl2=2
CD24 Y:14 net74:14 3.38425e-18 $lvl1=2 $lvl2=1
CD25 Y:22 net74 2.92976e-18 $lvl1=1 $lvl2=2
CD26 Y:18 net74:11 2.19253e-18 $lvl1=2 $lvl2=1
CD27 Y:22 net74:6 2.09759e-18 $lvl1=1 $lvl2=2
CD28 Y:22 net74:5 1.80979e-18 $lvl1=1 $lvl2=2
CD29 Y:15 net74:11 1.3803e-18 $lvl1=2 $lvl2=1
CD30 Y:22 net74:2 9.62782e-19 $lvl1=1 $lvl2=2
CD31 Y:24 net74:11 8.39983e-19 $lvl1=1 $lvl2=1
CD32 Y:15 Mmn1:s 7.92116e-19 $lvl1=2 $lvl2=4
CD33 Y net74 6.63421e-19 $lvl1=1 $lvl2=2
CD34 Y:14 net74 6.57315e-19 $lvl1=2 $lvl2=2
CD35 Y:14 net74:11 1.48831e-17 $lvl1=2 $lvl2=1
CD36 Y:19 net74:7 7.10979e-18 $lvl1=1 $lvl2=2
CD37 Y:14 net74:6 2.68362e-17 $lvl1=2 $lvl2=2
CD38 Y:22 net74:11 7.85397e-17 $lvl1=1 $lvl2=1
CD39 Y:14 net74:7 3.33929e-17 $lvl1=2 $lvl2=2
CD40 Y:19 net74:11 5.61132e-17 $lvl1=1 $lvl2=1
CD41 Y:22 net74:7 6.72338e-18 $lvl1=1 $lvl2=2
CD42 Y:15 net74:7 3.11312e-17 $lvl1=2 $lvl2=2
CD43 Y:24 net74 9.6228e-18 $lvl1=1 $lvl2=2
CD44 Y:24 net74:14 5.84365e-17 $lvl1=1 $lvl2=1
CD45 Y:22 net74:14 6.42102e-17 $lvl1=1 $lvl2=1
CD46 Y:15 net74:6 2.5307e-17 $lvl1=2 $lvl2=2
CD47 Y:3 net70:32 8.65542e-18 $lvl1=2 $lvl2=1
CD48 Y:3 net70:30 8.63607e-18 $lvl1=2 $lvl2=1
CD49 Y:26 net70 5.70012e-18 $lvl1=1 $lvl2=2
CD50 Y:3 net70:2 4.69316e-18 $lvl1=2 $lvl2=2
CD51 Y:5 net70:5 4.10067e-18 $lvl1=2 $lvl2=2
CD52 Y:5 net70:10 3.99916e-18 $lvl1=2 $lvl2=2
CD53 Y net70:10 3.987e-18 $lvl1=1 $lvl2=2
CD54 Y:5 net70:6 3.90082e-18 $lvl1=2 $lvl2=2
CD55 Y:3 net70:5 3.66098e-18 $lvl1=2 $lvl2=2
CD56 Y:5 net70 3.64078e-18 $lvl1=2 $lvl2=2
CD57 Y:3 net70:10 3.58986e-18 $lvl1=2 $lvl2=2
CD58 Y:4 net70 3.17146e-18 $lvl1=2 $lvl2=2
CD59 Y:4 net70:6 2.81989e-18 $lvl1=2 $lvl2=2
CD60 Y:3 net70:7 2.813e-18 $lvl1=2 $lvl2=2
CD61 Y:26 net70:10 2.25931e-18 $lvl1=1 $lvl2=2
CD62 Y:26 net70:29 1.98638e-18 $lvl1=1 $lvl2=1
CD63 Y:19 net70:21 1.89035e-18 $lvl1=1 $lvl2=2
CD64 Y:26 net70:7 1.78172e-18 $lvl1=1 $lvl2=2
CD65 Y:4 net70:32 1.65427e-18 $lvl1=2 $lvl2=1
CD66 Y:3 Mmp2:s 1.44989e-18 $lvl1=2 $lvl2=4
CD67 Mmp2:d net70:6 1.42609e-18 $lvl1=4 $lvl2=2
CD68 Y net70:6 1.4052e-18 $lvl1=1 $lvl2=2
CD69 Y:15 net70:21 1.35289e-18 $lvl1=2 $lvl2=2
CD70 Y:19 net70:26 1.27486e-18 $lvl1=1 $lvl2=1
CD71 Y:4 net70:30 1.17606e-18 $lvl1=2 $lvl2=1
CD72 Y:26 net70:2 9.37433e-19 $lvl1=1 $lvl2=2
CD73 Y net70:30 8.39622e-19 $lvl1=1 $lvl2=1
CD74 Y:15 net70:25 7.81023e-19 $lvl1=2 $lvl2=2
CD75 Y:19 net70:25 7.67082e-19 $lvl1=1 $lvl2=2
CD76 Y net70:32 7.49542e-19 $lvl1=1 $lvl2=1
CD77 Y:4 net70:2 6.07728e-19 $lvl1=2 $lvl2=2
CD78 Y:4 net70:7 5.89578e-19 $lvl1=2 $lvl2=2
CD79 Y:26 net70:5 5.87168e-19 $lvl1=1 $lvl2=2
CD80 Y:26 net70:32 2.90995e-17 $lvl1=1 $lvl2=1
CD81 Y:3 net70 8.46596e-17 $lvl1=2 $lvl2=2
CD82 Y:26 net70:6 1.43699e-17 $lvl1=1 $lvl2=2
CD83 Y:3 net70:6 9.53765e-17 $lvl1=2 $lvl2=2
CD84 Y:26 net70:30 4.87579e-17 $lvl1=1 $lvl2=1
CD85 Y:24 VSS!:7 6.90575e-18 $lvl1=1 $lvl2=2
CD86 Y:24 VSS!:16 6.3916e-18 $lvl1=1 $lvl2=2
CD87 Y:22 VSS!:7 6.36921e-18 $lvl1=1 $lvl2=2
CD88 Y:24 VSS!:19 5.58875e-18 $lvl1=1 $lvl2=1
CD89 Y:10 VSS!:16 4.96129e-18 $lvl1=2 $lvl2=2
CD90 Y:10 VSS!:13 4.78827e-18 $lvl1=2 $lvl2=2
CD91 Y:14 Mmn0@1:s 4.67262e-18 $lvl1=2 $lvl2=4
CD92 Y:24 VSS!:4 4.62886e-18 $lvl1=1 $lvl2=2
CD93 Y:14 VSS!:18 4.61614e-18 $lvl1=2 $lvl2=1
CD94 Mmn1:d VSS!:1 4.55835e-18 $lvl1=4 $lvl2=2
CD95 Y:9 VSS!:8 4.40201e-18 $lvl1=2 $lvl2=2
CD96 Y:19 VSS!:10 4.22085e-18 $lvl1=1 $lvl2=2
CD97 Y VSS!:13 4.13389e-18 $lvl1=1 $lvl2=2
CD98 Y:9 VSS!:7 3.9004e-18 $lvl1=2 $lvl2=2
CD99 Y:10 VSS!:7 3.53036e-18 $lvl1=2 $lvl2=2
CD100 Y:10 VSS!:8 3.04602e-18 $lvl1=2 $lvl2=2
CD101 Y:22 VSS!:4 3.03081e-18 $lvl1=1 $lvl2=2
CD102 Y:15 VSS!:17 3.00316e-18 $lvl1=2 $lvl2=1
CD103 Y:9 VSS!:18 2.88163e-18 $lvl1=2 $lvl2=1
CD104 Y:24 VSS!:1 2.51175e-18 $lvl1=1 $lvl2=2
CD105 Y:14 VSS!:4 2.46672e-18 $lvl1=2 $lvl2=2
CD106 Y:15 VSS!:5 2.1352e-18 $lvl1=2 $lvl2=4
CD107 Y:24 VSS!:8 2.03014e-18 $lvl1=1 $lvl2=2
CD108 Mmn1:d VSS!:7 1.84938e-18 $lvl1=4 $lvl2=2
CD109 Y:15 VSS!:18 1.76315e-18 $lvl1=2 $lvl2=1
CD110 Y:18 VSS!:17 1.70526e-18 $lvl1=2 $lvl2=1
CD111 Y:22 VSS!:17 1.67958e-18 $lvl1=1 $lvl2=1
CD112 Y:14 VSS!:5 1.67775e-18 $lvl1=2 $lvl2=4
CD113 Y VSS!:18 1.60977e-18 $lvl1=1 $lvl2=1
CD114 Y:18 VSS!:10 1.57597e-18 $lvl1=2 $lvl2=2
CD115 Y:15 VSS!:4 1.54661e-18 $lvl1=2 $lvl2=2
CD116 Y:19 VSS!:4 1.53374e-18 $lvl1=1 $lvl2=2
CD117 Y:14 VSS!:10 1.5192e-18 $lvl1=2 $lvl2=2
CD118 Y:18 VSS!:18 1.33563e-18 $lvl1=2 $lvl2=1
CD119 Y:15 VSS!:7 1.11856e-18 $lvl1=2 $lvl2=2
CD120 Y:22 VSS!:10 1.0911e-18 $lvl1=1 $lvl2=2
CD121 Y:10 VSS!:18 9.90177e-19 $lvl1=2 $lvl2=1
CD122 Y:9 VSS!:19 9.62629e-19 $lvl1=2 $lvl2=1
CD123 Y:9 VSS!:4 8.34489e-19 $lvl1=2 $lvl2=2
CD124 Mmn2:d VSS!:8 7.86614e-19 $lvl1=4 $lvl2=2
CD125 Y:10 VSS!:4 7.77112e-19 $lvl1=2 $lvl2=2
CD126 Y:9 VSS!:5 6.92673e-19 $lvl1=2 $lvl2=4
CD127 Mmn1@1:d VSS!:7 6.32332e-19 $lvl1=4 $lvl2=2
CD128 Y:19 VSS!:7 5.6672e-19 $lvl1=1 $lvl2=2
CD129 Y:9 Mmn2:s 5.61254e-19 $lvl1=2 $lvl2=4
CD130 Mmn2:d VSS!:13 5.50376e-19 $lvl1=4 $lvl2=2
CD131 Y:19 VSS!:18 2.52768e-17 $lvl1=1 $lvl2=1
CD132 Y:24 VSS!:13 2.81941e-17 $lvl1=1 $lvl2=2
CD133 Y:9 VSS!:16 6.00582e-17 $lvl1=2 $lvl2=2
CD134 Y:14 VSS!:7 1.45813e-17 $lvl1=2 $lvl2=2
CD135 Y:24 VSS!:18 5.8397e-17 $lvl1=1 $lvl2=1
CD136 Y:9 VSS!:13 5.3509e-17 $lvl1=2 $lvl2=2
CD137 Y:22 VSS!:18 5.71444e-17 $lvl1=1 $lvl2=1
CD138 Y:15 VSS!:10 1.32962e-17 $lvl1=2 $lvl2=2
CD139 Y:14 VSS!:1 5.40588e-17 $lvl1=2 $lvl2=2
CD140 Y:19 VSS!:17 1.50962e-17 $lvl1=1 $lvl2=1
CD141 Y:22 VSS!:1 1.61786e-17 $lvl1=1 $lvl2=2
CD142 Y:26 VDD! 9.73188e-18 $lvl1=1 $lvl2=1
CD143 Y VDD! 6.10749e-18 $lvl1=1 $lvl2=1
CD144 Y:3 VDD!:15 4.89352e-18 $lvl1=2 $lvl2=1
CD145 Y:18 VDD! 3.16047e-18 $lvl1=2 $lvl2=1
CD146 Y:26 VDD!:15 2.97551e-18 $lvl1=1 $lvl2=1
CD147 Y:3 VDD!:6 2.1169e-18 $lvl1=2 $lvl2=2
CD148 Y:26 VDD!:1 2.11104e-18 $lvl1=1 $lvl2=2
CD149 Y:9 VDD! 1.60476e-18 $lvl1=2 $lvl2=1
CD150 Mmp2:d VDD!:4 1.17225e-18 $lvl1=4 $lvl2=2
CD151 Y:24 VDD!:15 1.13423e-18 $lvl1=1 $lvl2=1
CD152 Y:15 VDD! 2.32185e-17 $lvl1=2 $lvl2=1
CD153 Y:24 VDD! 1.96178e-17 $lvl1=1 $lvl2=1
CD154 Y:3 VDD! 1.42093e-17 $lvl1=2 $lvl2=1
CD155 Y:22 VDD! 1.03977e-17 $lvl1=1 $lvl2=1
CD156 Y:3 VDD!:5 1.17953e-17 $lvl1=2 $lvl2=2
CD157 Y:19 VDD! 2.81123e-17 $lvl1=1 $lvl2=1
CD158 Y:3 VDD!:4 1.05396e-17 $lvl1=2 $lvl2=2
ReD57 Y:19 Y:20 0.127155 $metal1  $L=0.295 $W=0.290000 $SI_W=0.29 $TYPE=10 $DIR=1 $LLX=3.215000 $LLY=0.935000 $URX=3.505000 $URY=1.230000 $lvl=1
ReD58 Y:20 Y:21 0.039784 $metal1  $L=0.1445 $W=0.455000 $SI_W=0.455 $TYPE=10 $DIR=0 $LLX=3.215500 $LLY=0.625000 $URX=3.360000 $URY=1.080000 $lvl=1
ReD59 Y:21 Y:22 0.308258 $metal1  $L=0.715 $W=0.290000 $SI_W=0.29 $TYPE=10 $DIR=0 $LLX=2.500000 $LLY=0.625000 $URX=3.215000 $URY=0.915000 $lvl=1
ReD60 Y:22 Y:23 0.680927 $metal1  $L=1.57975 $W=0.290000 $SI_W=0.29 $TYPE=10 $DIR=0 $LLX=0.920000 $LLY=0.625000 $URX=2.500000 $URY=0.915000 $lvl=1
ReD61 Y:23 Y:24 0.099246 $metal1  $L=0.23025 $W=0.290000 $SI_W=0.29 $TYPE=10 $DIR=0 $LLX=0.690000 $LLY=0.625000 $URX=0.920000 $URY=0.915000 $lvl=1
ReD62 Y:23 Y 0.543162 $metal1  $L=1.14475 $W=0.260000 $SI_W=0.26 $TYPE=10 $DIR=1 $LLX=0.790000 $LLY=0.770000 $URX=1.050000 $URY=1.915000 $lvl=1
ReD63 Y Y:25 0.473678 $metal1  $L=0.98525 $W=0.260000 $SI_W=0.26 $TYPE=10 $DIR=1 $LLX=0.790000 $LLY=1.915000 $URX=1.050000 $URY=2.900000 $lvl=1
ReD64 Y:25 Y:26 0.099246 $metal1  $L=0.23025 $W=0.290000 $SI_W=0.29 $TYPE=10 $DIR=0 $LLX=0.690000 $LLY=2.755000 $URX=0.920000 $URY=3.045000 $lvl=1
RfD65 Y:1 Y:3 54.964703 $li  $L=0.73 $W=0.170000 $SI_W=0.17 $TYPE=10 $DIR=1 $LLX=0.605000 $LLY=3.015000 $URX=0.775000 $URY=3.745000 $lvl=2
RfD66 Y:3 Y:4 8.658823 $li  $L=0.115 $W=0.170000 $SI_W=0.17 $TYPE=10 $DIR=1 $LLX=0.605000 $LLY=2.900000 $URX=0.775000 $URY=3.015000 $lvl=2
RfD67 Y:4 Y:5 46.305885 $li  $L=0.615 $W=0.170000 $SI_W=0.17 $TYPE=10 $DIR=1 $LLX=0.605000 $LLY=2.285000 $URX=0.775000 $URY=2.900000 $lvl=2
RfD68 Y:6 Y:8 28.611765 $li  $L=0.38 $W=0.170000 $SI_W=0.17 $TYPE=10 $DIR=1 $LLX=0.605000 $LLY=0.970000 $URX=0.775000 $URY=1.350000 $lvl=2
RfD69 Y:8 Y:9 15.058825 $li  $L=0.2 $W=0.170000 $SI_W=0.17 $TYPE=10 $DIR=1 $LLX=0.605000 $LLY=0.770000 $URX=0.775000 $URY=0.970000 $lvl=2
RfD70 Y:9 Y:10 13.552942 $li  $L=0.18 $W=0.170000 $SI_W=0.17 $TYPE=10 $DIR=1 $LLX=0.605000 $LLY=0.590000 $URX=0.775000 $URY=0.770000 $lvl=2
RfD71 Y:11 Y:13 28.611765 $li  $L=0.38 $W=0.170000 $SI_W=0.17 $TYPE=10 $DIR=1 $LLX=2.415000 $LLY=0.970000 $URX=2.585000 $URY=1.350000 $lvl=2
RfD72 Y:13 Y:14 16.188236 $li  $L=0.215 $W=0.170000 $SI_W=0.17 $TYPE=10 $DIR=1 $LLX=2.415000 $LLY=0.755000 $URX=2.585000 $URY=0.970000 $lvl=2
RfD73 Y:15 Y:17 28.611765 $li  $L=0.38 $W=0.170000 $SI_W=0.17 $TYPE=10 $DIR=1 $LLX=3.275000 $LLY=0.970000 $URX=3.445000 $URY=1.350000 $lvl=2
RfD74 Y:17 Y:18 0.923711 $li  $L=0.035 $W=0.170000 $SI_W=0.485 $TYPE=10 $DIR=1 $LLX=3.275000 $LLY=0.935000 $URX=3.445000 $URY=0.970000 $lvl=2
RhD75 Mmn2:d Y:8 7.500000 $licon_diff  $A=0.0578 $VC=0 $SAVL=0 $SAVC=0 $SI_A=0.0578 $COVER_DIR=0 $LLX=0.000000 $LLY=0.000000 $URX=-0.057800 $URY=-2.000000 $lvl=5
RhD76 Mmn1:d Y:13 7.500000 $licon_diff  $A=0.0578 $VC=0 $SAVL=0 $SAVC=0 $SI_A=0.0578 $COVER_DIR=0 $LLX=0.000000 $LLY=0.000000 $URX=-0.057800 $URY=-2.000000 $lvl=5
RhD77 Mmn1@1:d Y:17 7.500000 $licon_diff  $A=0.0578 $VC=0 $SAVL=0 $SAVC=0 $SI_A=0.0578 $COVER_DIR=0 $LLX=0.000000 $LLY=0.000000 $URX=-0.057800 $URY=-2.000000 $lvl=5
Rh_2_D78 Mmp2:d Y:3 3.750000 $licon_diff  $A=0.1156 $VC=0 $SAVL=0 $SAVC=0 $SI_A=0.1156 $COVER_DIR=0 $LLX=0.000000 $LLY=0.000000 $URX=-0.115600 $URY=-4.000000 $lvl=5
RjD79 Y:18 Y:20 76.000000 $mcon  $A=0.0578 $VC=0 $SAVL=0 $SAVC=0 $SI_A=0.0578 $COVER_DIR=0 $LLX=0.000000 $LLY=0.000000 $URX=-0.057800 $URY=-2.000000 $lvl=6
RjD80 Y:14 Y:22 152.000000 $mcon  $L=0.17 $W=0.17 $A=0.0289 $VC=0 $SAVL=0 $SAVC=0 $SI_A=0.0289 $COVER_DIR=0 $LLX=0.000000 $LLY=0.000000 $URX=0.170000 $URY=0.170000 $lvl=6
RjD81 Y:9 Y:24 152.000000 $mcon  $L=0.17 $W=0.17 $A=0.0289 $VC=0 $SAVL=0 $SAVC=0 $SI_A=0.0289 $COVER_DIR=0 $LLX=0.000000 $LLY=0.000000 $URX=0.170000 $URY=0.170000 $lvl=6
RjD82 Y:4 Y:26 152.000000 $mcon  $L=0.17 $W=0.17 $A=0.0289 $VC=0 $SAVL=0 $SAVC=0 $SI_A=0.0289 $COVER_DIR=0 $LLX=0.000000 $LLY=0.000000 $URX=0.170000 $URY=0.170000 $lvl=6
RmwD83 Mmp2@1:d Mmp2:d 0.001000 $diff $W=1000000 $SI_W=1000000 $TYPE=1 $DIR=0
RmwD84 Mmn2@1:d Mmn2:d 0.001000 $diff $W=1000000 $SI_W=1000000 $TYPE=1 $DIR=0
*
*|NET VSS! 2.22112e-15
*|P (VSS! X 0 2.4150 0.0050) // $llx=2.4150 $lly=0.0050 $urx=2.4150 $ury=0.0050 $lvl=1
*|I (Mmn1:b Mmn1 b X 0 2.7150 0.9700) // $llx=2.7150 $lly=0.9700 $urx=2.7150 $ury=0.9700 $lvl=8
*|I (Mmn1@1:b Mmn1@1 b X 0 3.1450 0.9700) // $llx=3.1450 $lly=0.9700 $urx=3.1450 $ury=0.9700 $lvl=8
*|I (Mmn0:s Mmn0 s X 0 1.2595 0.9700) // $llx=1.2595 $lly=0.9700 $urx=1.2595 $ury=0.9700 $lvl=4
*|I (Mmn0:b Mmn0 b X 0 1.3350 0.9700) // $llx=1.3350 $lly=0.9700 $urx=1.3350 $ury=0.9700 $lvl=8
*|I (Mmn0@1:s Mmn0@1 s X 0 1.8405 0.9700) // $llx=1.8405 $lly=0.9700 $urx=1.8405 $ury=0.9700 $lvl=4
*|I (Mmn0@1:b Mmn0@1 b X 0 1.7650 0.9700) // $llx=1.7650 $lly=0.9700 $urx=1.7650 $ury=0.9700 $lvl=8
*|I (Mmn2:s Mmn2 s X 0 0.3995 0.9700) // $llx=0.3995 $lly=0.9700 $urx=0.3995 $ury=0.9700 $lvl=4
*|I (Mmn2:b Mmn2 b X 0 0.4750 0.9700) // $llx=0.4750 $lly=0.9700 $urx=0.4750 $ury=0.9700 $lvl=8
*|I (Mmn2@1:s Mmn2@1 s X 0 0.9805 0.9700) // $llx=0.9805 $lly=0.9700 $urx=0.9805 $ury=0.9700 $lvl=4
*|I (Mmn2@1:b Mmn2@1 b X 0 0.9050 0.9700) // $llx=0.9050 $lly=0.9700 $urx=0.9050 $ury=0.9700 $lvl=8
*|S (VSS!:1 1.9800 1.3500) // $llx=1.9800 $lly=1.3500 $urx=1.9800 $ury=1.3500 $lvl=2