*
*|DSPF 1.5
*
*|DATE "Wed Jan  8 23:09:25 2025"
*|VENDOR "Cadence Design Systems"
*|PROGRAM "Cadence Quantus Extraction"
*|VERSION "22.1.0-p089 Linux 64 bit - (Thu Jan 19 11:47:08 PST 2023)"
*|DESIGN BUFX16_HS
*|DIVIDER /
*|DELIMITER :
*|DeviceFingerDelim "@"
*|BUSBIT []
*|GLOBAL_TEMPERATURE 25
*|OPERATING_TEMPERATURE 25

** *VIA_COVERAGE_CODES
** *index FF FS FP FU SF SS SP SU PF PS PP PU UF US UP UU X_by_Y
** * "FF" stands for Full landing and Full coverage
** *0 0 0 0 0 0 0 0 0 0 0 0 0 0 0 0 0
** *1 0 0 0 0 0 0 0 0 0 0 0 0 0 0 0 1 1x1
** *2 0 0 0 0 0 0 0 0 0 0 0 0 0 0 1 0 1x1
** *3 0 0 0 0 0 0 0 0 0 0 0 0 0 1 0 0 1x1
** *4 0 0 0 0 0 0 0 0 0 0 0 0 1 0 0 0 1x1
** *5 0 0 0 0 0 0 0 0 0 0 0 1 0 0 0 0 1x1
** *6 0 0 0 0 0 0 0 0 0 0 1 0 0 0 0 0 1x1
** *7 0 0 0 0 0 0 0 0 0 1 0 0 0 0 0 0 1x1
** *8 0 0 0 0 0 0 0 0 1 0 0 0 0 0 0 0 1x1
** *9 0 0 0 0 0 0 0 1 0 0 0 0 0 0 0 0 1x1
** *10 0 0 0 0 0 0 1 0 0 0 0 0 0 0 0 0 1x1
** *11 0 0 0 0 0 1 0 0 0 0 0 0 0 0 0 0 1x1
** *12 0 0 0 0 1 0 0 0 0 0 0 0 0 0 0 0 1x1
** *13 0 0 0 1 0 0 0 0 0 0 0 0 0 0 0 0 1x1
** *14 0 0 1 0 0 0 0 0 0 0 0 0 0 0 0 0 1x1
** *15 0 1 0 0 0 0 0 0 0 0 0 0 0 0 0 0 1x1
** *16 1 0 0 0 0 0 0 0 0 0 0 0 0 0 0 0 1x1

** *RESISTOR_TYPES
** *1 SHORTING_ELEMENT
** *2 PRES_NG
** *3 PRES_PG
** *4 PRES_NF
** *5 PRES_PF
** *6 TCN_NDIFF
** *7 TCN_PDIFF
** *8 TCN_NFIELD
** *9 TCN_PFIELD
** *10 QUALITY_EXTRACTED
** *11 GCNLAND
** *12 TCNLAND
** *13 DUMMY
** *14 RSD
** *15 BRIDGE

** *RESISTOR_CURRENT_DIRECTION
** *0 HORIZONTAL
** *1 VERTICAL
** *2 45 DEGREE

** QRC_TECH_DIR /vols/wfo_devel/projects/reference_SKY130/tech/sky130_release_0.0.4/quantus/extraction/typical 
** HIERARCHICAL_SPLIT_PINS_DELIMITER '%'
** caps2d version: 10
*
.SUBCKT  BUFX16_HS A Y
*
*Net Section
*
*|GROUND_NET VSS!
*
*LAYER_MAP
*0 none
*1 metal1
*2 li
*3 poly
*4 diff
*5 licon_diff
*6 mcon
*7 licon
*8 FOX

*|NET n0 1.70866e-14
*|I (Mmp0@2:d Mmp0@2 d X 0 0.5505 3.0150) // $llx=0.5505 $lly=3.0150 $urx=0.5505 $ury=3.0150 $lvl=4
*|I (Mmp0:d Mmp0 d X 0 0.8295 3.0150) // $llx=0.8295 $lly=3.0150 $urx=0.8295 $ury=3.0150 $lvl=4
*|I (Mmp0@3:d Mmp0@3 d X 0 1.4105 3.0150) // $llx=1.4105 $lly=3.0150 $urx=1.4105 $ury=3.0150 $lvl=4
*|I (Mmp0@1:d Mmp0@1 d X 0 1.6895 3.0150) // $llx=1.6895 $lly=3.0150 $urx=1.6895 $ury=3.0150 $lvl=4
*|I (Mmp1@15:g Mmp1@15 g X 0 2.1950 3.0150) // $llx=2.1950 $lly=3.0150 $urx=2.1950 $ury=3.0150 $lvl=3
*|I (Mmp1@3:g Mmp1@3 g X 0 2.6250 3.0150) // $llx=2.6250 $lly=3.0150 $urx=2.6250 $ury=3.0150 $lvl=3
*|I (Mmp1@12:g Mmp1@12 g X 0 3.0550 3.0150) // $llx=3.0550 $lly=3.0150 $urx=3.0550 $ury=3.0150 $lvl=3
*|I (Mmp1@1:g Mmp1@1 g X 0 3.4850 3.0150) // $llx=3.4850 $lly=3.0150 $urx=3.4850 $ury=3.0150 $lvl=3
*|I (Mmp1@4:g Mmp1@4 g X 0 3.9150 3.0150) // $llx=3.9150 $lly=3.0150 $urx=3.9150 $ury=3.0150 $lvl=3
*|I (Mmp1@10:g Mmp1@10 g X 0 4.3450 3.0150) // $llx=4.3450 $lly=3.0150 $urx=4.3450 $ury=3.0150 $lvl=3
*|I (Mmp1@8:g Mmp1@8 g X 0 4.7750 3.0150) // $llx=4.7750 $lly=3.0150 $urx=4.7750 $ury=3.0150 $lvl=3
*|I (Mmp1@11:g Mmp1@11 g X 0 5.2050 3.0150) // $llx=5.2050 $lly=3.0150 $urx=5.2050 $ury=3.0150 $lvl=3
*|I (Mmp1@14:g Mmp1@14 g X 0 5.6350 3.0150) // $llx=5.6350 $lly=3.0150 $urx=5.6350 $ury=3.0150 $lvl=3
*|I (Mmp1@9:g Mmp1@9 g X 0 6.0650 3.0150) // $llx=6.0650 $lly=3.0150 $urx=6.0650 $ury=3.0150 $lvl=3
*|I (Mmp1@6:g Mmp1@6 g X 0 6.4950 3.0150) // $llx=6.4950 $lly=3.0150 $urx=6.4950 $ury=3.0150 $lvl=3
*|I (Mmp1:g Mmp1 g X 0 6.9250 3.0150) // $llx=6.9250 $lly=3.0150 $urx=6.9250 $ury=3.0150 $lvl=3
*|I (Mmp1@5:g Mmp1@5 g X 0 7.3550 3.0150) // $llx=7.3550 $lly=3.0150 $urx=7.3550 $ury=3.0150 $lvl=3
*|I (Mmp1@7:g Mmp1@7 g X 0 7.7850 3.0150) // $llx=7.7850 $lly=3.0150 $urx=7.7850 $ury=3.0150 $lvl=3
*|I (Mmp1@13:g Mmp1@13 g X 0 8.2150 3.0150) // $llx=8.2150 $lly=3.0150 $urx=8.2150 $ury=3.0150 $lvl=3
*|I (Mmp1@2:g Mmp1@2 g X 0 8.6450 3.0150) // $llx=8.6450 $lly=3.0150 $urx=8.6450 $ury=3.0150 $lvl=3
*|I (Mmn1:g Mmn1 g X 0 2.1950 0.7750) // $llx=2.1950 $lly=0.7750 $urx=2.1950 $ury=0.7750 $lvl=3
*|I (Mmn1@6:g Mmn1@6 g X 0 2.6250 0.7750) // $llx=2.6250 $lly=0.7750 $urx=2.6250 $ury=0.7750 $lvl=3
*|I (Mmn1@5:g Mmn1@5 g X 0 3.0550 0.7750) // $llx=3.0550 $lly=0.7750 $urx=3.0550 $ury=0.7750 $lvl=3
*|I (Mmn1@13:g Mmn1@13 g X 0 3.4850 0.7750) // $llx=3.4850 $lly=0.7750 $urx=3.4850 $ury=0.7750 $lvl=3
*|I (Mmn1@7:g Mmn1@7 g X 0 3.9150 0.7750) // $llx=3.9150 $lly=0.7750 $urx=3.9150 $ury=0.7750 $lvl=3
*|I (Mmn1@2:g Mmn1@2 g X 0 4.3450 0.7750) // $llx=4.3450 $lly=0.7750 $urx=4.3450 $ury=0.7750 $lvl=3
*|I (Mmn1@1:g Mmn1@1 g X 0 4.7750 0.7750) // $llx=4.7750 $lly=0.7750 $urx=4.7750 $ury=0.7750 $lvl=3
*|I (Mmn1@4:g Mmn1@4 g X 0 5.2050 0.7750) // $llx=5.2050 $lly=0.7750 $urx=5.2050 $ury=0.7750 $lvl=3
*|I (Mmn1@3:g Mmn1@3 g X 0 5.6350 0.7750) // $llx=5.6350 $lly=0.7750 $urx=5.6350 $ury=0.7750 $lvl=3
*|I (Mmn1@12:g Mmn1@12 g X 0 6.0650 0.7750) // $llx=6.0650 $lly=0.7750 $urx=6.0650 $ury=0.7750 $lvl=3
*|I (Mmn1@15:g Mmn1@15 g X 0 6.4950 0.7750) // $llx=6.4950 $lly=0.7750 $urx=6.4950 $ury=0.7750 $lvl=3
*|I (Mmn1@14:g Mmn1@14 g X 0 6.9250 0.7750) // $llx=6.9250 $lly=0.7750 $urx=6.9250 $ury=0.7750 $lvl=3
*|I (Mmn1@9:g Mmn1@9 g X 0 7.3550 0.7750) // $llx=7.3550 $lly=0.7750 $urx=7.3550 $ury=0.7750 $lvl=3
*|I (Mmn1@8:g Mmn1@8 g X 0 7.7850 0.7750) // $llx=7.7850 $lly=0.7750 $urx=7.7850 $ury=0.7750 $lvl=3
*|I (Mmn1@11:g Mmn1@11 g X 0 8.2150 0.7750) // $llx=8.2150 $lly=0.7750 $urx=8.2150 $ury=0.7750 $lvl=3
*|I (Mmn1@10:g Mmn1@10 g X 0 8.6450 0.7750) // $llx=8.6450 $lly=0.7750 $urx=8.6450 $ury=0.7750 $lvl=3
*|I (Mmn0:s Mmn0 s X 0 0.5505 0.7750) // $llx=0.5505 $lly=0.7750 $urx=0.5505 $ury=0.7750 $lvl=4
*|I (Mmn0@2:s Mmn0@2 s X 0 0.8295 0.7750) // $llx=0.8295 $lly=0.7750 $urx=0.8295 $ury=0.7750 $lvl=4
*|I (Mmn0@1:s Mmn0@1 s X 0 1.4105 0.7750) // $llx=1.4105 $lly=0.7750 $urx=1.4105 $ury=0.7750 $lvl=4
*|I (Mmn0@3:s Mmn0@3 s X 0 1.6895 0.7750) // $llx=1.6895 $lly=0.7750 $urx=1.6895 $ury=0.7750 $lvl=4
*|S (n0 2.1950 0.7750) // $llx=2.1950 $lly=0.7750 $urx=2.1950 $ury=0.7750 $lvl=3
*|S (n0:113 8.6450 3.8950) // $llx=8.6450 $lly=3.8950 $urx=8.6450 $ury=3.8950 $lvl=3
*|S (n0:114 8.6450 1.7700) // $llx=8.6450 $lly=1.7700 $urx=8.6450 $ury=1.7700 $lvl=3
*|S (n0:115 8.2150 1.7700) // $llx=8.2150 $lly=1.7700 $urx=8.2150 $ury=1.7700 $lvl=3
*|S (n0:116 7.7850 1.7700) // $llx=7.7850 $lly=1.7700 $urx=7.7850 $ury=1.7700 $lvl=3
*|S (n0:117 7.3550 1.7700) // $llx=7.3550 $lly=1.7700 $urx=7.3550 $ury=1.7700 $lvl=3
*|S (n0:118 6.9250 1.7700) // $llx=6.9250 $lly=1.7700 $urx=6.9250 $ury=1.7700 $lvl=3
*|S (n0:119 6.4950 1.7700) // $llx=6.4950 $lly=1.7700 $urx=6.4950 $ury=1.7700 $lvl=3
*|S (n0:120 6.0650 1.7700) // $llx=6.0650 $lly=1.7700 $urx=6.0650 $ury=1.7700 $lvl=3
*|S (n0:121 5.6350 1.7700) // $llx=5.6350 $lly=1.7700 $urx=5.6350 $ury=1.7700 $lvl=3
*|S (n0:122 5.4200 1.7700) // $llx=5.4200 $lly=1.7700 $urx=5.4200 $ury=1.7700 $lvl=3
*|S (n0:123 5.2050 1.7700) // $llx=5.2050 $lly=1.7700 $urx=5.2050 $ury=1.7700 $lvl=3
*|S (n0:124 4.7750 1.7700) // $llx=4.7750 $lly=1.7700 $urx=4.7750 $ury=1.7700 $lvl=3
*|S (n0:125 4.3450 1.7700) // $llx=4.3450 $lly=1.7700 $urx=4.3450 $ury=1.7700 $lvl=3
*|S (n0:126 3.9150 1.7700) // $llx=3.9150 $lly=1.7700 $urx=3.9150 $ury=1.7700 $lvl=3
*|S (n0:127 3.4850 1.7700) // $llx=3.4850 $lly=1.7700 $urx=3.4850 $ury=1.7700 $lvl=3
*|S (n0:128 3.0550 1.7700) // $llx=3.0550 $lly=1.7700 $urx=3.0550 $ury=1.7700 $lvl=3
*|S (n0:129 2.6250 1.7700) // $llx=2.6250 $lly=1.7700 $urx=2.6250 $ury=1.7700 $lvl=3
*|S (n0:130 2.1950 1.7700) // $llx=2.1950 $lly=1.7700 $urx=2.1950 $ury=1.7700 $lvl=3
*|S (n0:131 8.6450 0.2450) // $llx=8.6450 $lly=0.2450 $urx=8.6450 $ury=0.2450 $lvl=3
*|S (n0:132 8.2150 0.2450) // $llx=8.2150 $lly=0.2450 $urx=8.2150 $ury=0.2450 $lvl=3
*|S (n0:133 8.2150 3.8950) // $llx=8.2150 $lly=3.8950 $urx=8.2150 $ury=3.8950 $lvl=3
*|S (n0:134 7.7850 0.2450) // $llx=7.7850 $lly=0.2450 $urx=7.7850 $ury=0.2450 $lvl=3
*|S (n0:135 7.7850 3.8950) // $llx=7.7850 $lly=3.8950 $urx=7.7850 $ury=3.8950 $lvl=3
*|S (n0:136 7.3550 0.2450) // $llx=7.3550 $lly=0.2450 $urx=7.3550 $ury=0.2450 $lvl=3
*|S (n0:137 7.3550 3.8950) // $llx=7.3550 $lly=3.8950 $urx=7.3550 $ury=3.8950 $lvl=3
*|S (n0:138 6.9250 0.2450) // $llx=6.9250 $lly=0.2450 $urx=6.9250 $ury=0.2450 $lvl=3
*|S (n0:139 6.9250 3.8950) // $llx=6.9250 $lly=3.8950 $urx=6.9250 $ury=3.8950 $lvl=3
*|S (n0:140 6.4950 0.2450) // $llx=6.4950 $lly=0.2450 $urx=6.4950 $ury=0.2450 $lvl=3
*|S (n0:141 6.4950 3.8950) // $llx=6.4950 $lly=3.8950 $urx=6.4950 $ury=3.8950 $lvl=3
*|S (n0:142 6.0650 0.2450) // $llx=6.0650 $lly=0.2450 $urx=6.0650 $ury=0.2450 $lvl=3
*|S (n0:143 6.0650 3.8950) // $llx=6.0650 $lly=3.8950 $urx=6.0650 $ury=3.8950 $lvl=3
*|S (n0:144 5.6350 0.2450) // $llx=5.6350 $lly=0.2450 $urx=5.6350 $ury=0.2450 $lvl=3
*|S (n0:145 5.6350 3.8950) // $llx=5.6350 $lly=3.8950 $urx=5.6350 $ury=3.8950 $lvl=3
*|S (n0:146 5.2050 0.2450) // $llx=5.2050 $lly=0.2450 $urx=5.2050 $ury=0.2450 $lvl=3
*|S (n0:147 5.2050 3.8950) // $llx=5.2050 $lly=3.8950 $urx=5.2050 $ury=3.8950 $lvl=3
*|S (n0:148 4.7750 0.2450) // $llx=4.7750 $lly=0.2450 $urx=4.7750 $ury=0.2450 $lvl=3
*|S (n0:149 4.7750 3.8950) // $llx=4.7750 $lly=3.8950 $urx=4.7750 $ury=3.8950 $lvl=3
*|S (n0:150 4.3450 0.2450) // $llx=4.3450 $lly=0.2450 $urx=4.3450 $ury=0.2450 $lvl=3
*|S (n0:151 4.3450 3.8950) // $llx=4.3450 $lly=3.8950 $urx=4.3450 $ury=3.8950 $lvl=3
*|S (n0:152 3.9150 0.2450) // $llx=3.9150 $lly=0.2450 $urx=3.9150 $ury=0.2450 $lvl=3
*|S (n0:153 3.9150 3.8950) // $llx=3.9150 $lly=3.8950 $urx=3.9150 $ury=3.8950 $lvl=3
*|S (n0:154 3.4850 0.2450) // $llx=3.4850 $lly=0.2450 $urx=3.4850 $ury=0.2450 $lvl=3
*|S (n0:155 3.4850 3.8950) // $llx=3.4850 $lly=3.8950 $urx=3.4850 $ury=3.8950 $lvl=3
*|S (n0:156 3.0550 0.2450) // $llx=3.0550 $lly=0.2450 $urx=3.0550 $ury=0.2450 $lvl=3
*|S (n0:157 3.0550 3.8950) // $llx=3.0550 $lly=3.8950 $urx=3.0550 $ury=3.8950 $lvl=3
*|S (n0:158 2.6250 0.2450) // $llx=2.6250 $lly=0.2450 $urx=2.6250 $ury=0.2450 $lvl=3
*|S (n0:159 2.6250 3.8950) // $llx=2.6250 $lly=3.8950 $urx=2.6250 $ury=3.8950 $lvl=3
*|S (n0:160 2.1950 3.8950) // $llx=2.1950 $lly=3.8950 $urx=2.1950 $ury=3.8950 $lvl=3
*|S (n0:161 2.1950 0.2450) // $llx=2.1950 $lly=0.2450 $urx=2.1950 $ury=0.2450 $lvl=3
*|S (n0:162 0.6900 3.7450) // $llx=0.6900 $lly=3.7450 $urx=0.6900 $ury=3.7450 $lvl=2
*|S (n0:163 0.6900 3.3450) // $llx=0.6900 $lly=3.3450 $urx=0.6900 $ury=3.3450 $lvl=2
*|S (n0:165 0.6900 3.0150) // $llx=0.6900 $lly=3.0150 $urx=0.6900 $ury=3.0150 $lvl=2
*|S (n0:166 0.6900 2.2850) // $llx=0.6900 $lly=2.2850 $urx=0.6900 $ury=2.2850 $lvl=2
*|S (n0:167 0.6900 1.1550) // $llx=0.6900 $lly=1.1550 $urx=0.6900 $ury=1.1550 $lvl=2
*|S (n0:168 0.6900 0.7750) // $llx=0.6900 $lly=0.7750 $urx=0.6900 $ury=0.7750 $lvl=2
*|S (n0:171 0.6900 0.3950) // $llx=0.6900 $lly=0.3950 $urx=0.6900 $ury=0.3950 $lvl=2
*|S (n0:172 1.5500 3.7450) // $llx=1.5500 $lly=3.7450 $urx=1.5500 $ury=3.7450 $lvl=2
*|S (n0:174 1.5500 3.0150) // $llx=1.5500 $lly=3.0150 $urx=1.5500 $ury=3.0150 $lvl=2
*|S (n0:175 1.5500 2.9850) // $llx=1.5500 $lly=2.9850 $urx=1.5500 $ury=2.9850 $lvl=2
*|S (n0:176 1.5500 2.2850) // $llx=1.5500 $lly=2.2850 $urx=1.5500 $ury=2.2850 $lvl=2
*|S (n0:177 1.5500 1.1550) // $llx=1.5500 $lly=1.1550 $urx=1.5500 $ury=1.1550 $lvl=2
*|S (n0:178 1.5500 0.7750) // $llx=1.5500 $lly=0.7750 $urx=1.5500 $ury=0.7750 $lvl=2
*|S (n0:181 1.5500 0.3950) // $llx=1.5500 $lly=0.3950 $urx=1.5500 $ury=0.3950 $lvl=2
*|S (n0:182 8.5950 1.7700) // $llx=8.5950 $lly=1.7700 $urx=8.5950 $ury=1.7700 $lvl=2
*|S (n0:183 5.4200 1.7700) // $llx=5.4200 $lly=1.7700 $urx=5.4200 $ury=1.7700 $lvl=2
*|S (n0:184 1.5500 1.7700) // $llx=1.5500 $lly=1.7700 $urx=1.5500 $ury=1.7700 $lvl=2
*|S (n0:185 0.5350 1.7700) // $llx=0.5350 $lly=1.7700 $urx=0.5350 $ury=1.7700 $lvl=2
*|S (n0:186 0.3700 1.7700) // $llx=0.3700 $lly=1.7700 $urx=0.3700 $ury=1.7700 $lvl=2
*|S (n0:187 0.6900 3.3450) // $llx=0.6900 $lly=3.3450 $urx=0.6900 $ury=3.3450 $lvl=1
*|S (n0:188 0.6125 3.2000) // $llx=0.6125 $lly=3.2000 $urx=0.6125 $ury=3.2000 $lvl=1
*|S (n0:189 0.5350 1.7700) // $llx=0.5350 $lly=1.7700 $urx=0.5350 $ury=1.7700 $lvl=1
*|S (n0:190 0.6125 1.0995) // $llx=0.6125 $lly=1.0995 $urx=0.6125 $ury=1.0995 $lvl=1
*|S (n0:191 0.6900 0.7750) // $llx=0.6900 $lly=0.7750 $urx=0.6900 $ury=0.7750 $lvl=1
*|S (n0:192 0.6125 0.4500) // $llx=0.6125 $lly=0.4500 $urx=0.6125 $ury=0.4500 $lvl=1
*|S (n0:193 1.5500 3.4900) // $llx=1.5500 $lly=3.4900 $urx=1.5500 $ury=3.4900 $lvl=1
*|S (n0:194 1.5500 2.9850) // $llx=1.5500 $lly=2.9850 $urx=1.5500 $ury=2.9850 $lvl=1
*|S (n0:195 1.5500 1.7700) // $llx=1.5500 $lly=1.7700 $urx=1.5500 $ury=1.7700 $lvl=1
*|S (n0:196 1.5500 0.7750) // $llx=1.5500 $lly=0.7750 $urx=1.5500 $ury=0.7750 $lvl=1
*|S (n0:197 1.5500 0.4500) // $llx=1.5500 $lly=0.4500 $urx=1.5500 $ury=0.4500 $lvl=1
CE1 Mmn0@1:s VSS! 2.25081e-18 $lvl=4
CE2 Mmn0:s VSS! 6.21936e-19 $lvl=4
CE3 Mmn1@10:g VSS! 1.29167e-18 $lvl=3
CE4 Mmn1@8:g VSS! 1.63956e-18 $lvl=3
CE5 Mmn1@9:g VSS! 2.3224e-18 $lvl=3
CE6 Mmn1@14:g VSS! 9.91184e-19 $lvl=3
CE7 Mmn1@15:g VSS! 2.38593e-18 $lvl=3
CE8 Mmn1@3:g VSS! 1.80843e-18 $lvl=3
CE9 Mmn1@1:g VSS! 7.54241e-19 $lvl=3
CE10 Mmn1@7:g VSS! 1.76779e-18 $lvl=3
CE11 Mmn1@5:g VSS! 1.6299e-18 $lvl=3
CE12 Mmp1:g VSS! 1.93076e-18 $lvl=3
CE13 Mmp0@3:d VSS! 4.60116e-19 $lvl=4
CE14 Mmp0@2:d VSS! 2.51195e-18 $lvl=4
CE15 n0:196 VSS! 6.19404e-18 $lvl=1
CE16 n0:195 VSS! 7.03795e-18 $lvl=1
CE17 n0:194 VSS! 7.93542e-18 $lvl=1
CE18 n0:193 VSS! 4.69107e-18 $lvl=1
CE19 n0:197 VSS! 4.01534e-18 $lvl=1
CE20 n0:190 VSS! 8.45777e-18 $lvl=1
CE21 n0:189 VSS! 8.77219e-18 $lvl=1
CE22 n0:187 VSS! 4.73779e-18 $lvl=1
CE23 n0:188 VSS! 5.80952e-18 $lvl=1
CE24 n0:113 VSS! 2.85802e-18 $lvl=3
CE25 n0:133 VSS! 7.12252e-19 $lvl=3
CE26 n0:135 VSS! 1.71816e-18 $lvl=3
CE27 n0:137 VSS! 1.37455e-18 $lvl=3
CE28 n0:141 VSS! 2.0351e-18 $lvl=3
CE29 n0:143 VSS! 1.94639e-18 $lvl=3
CE30 n0:145 VSS! 2.32759e-18 $lvl=3
CE31 n0:147 VSS! 1.1471e-18 $lvl=3
CE32 n0:149 VSS! 2.13605e-18 $lvl=3
CE33 n0:151 VSS! 9.77478e-19 $lvl=3
CE34 n0:153 VSS! 2.49434e-18 $lvl=3
CE35 n0:155 VSS! 1.05958e-18 $lvl=3
CE36 n0:157 VSS! 2.07589e-18 $lvl=3
CE37 n0:159 VSS! 1.94739e-18 $lvl=3
CE38 n0:160 VSS! 1.7923e-18 $lvl=3
CE39 n0:158 VSS! 1.56365e-18 $lvl=3
CE40 n0:154 VSS! 9.83409e-19 $lvl=3
CE41 n0:150 VSS! 1.12778e-18 $lvl=3
CE42 n0:146 VSS! 8.9412e-19 $lvl=3
CE43 n0:142 VSS! 9.05109e-19 $lvl=3
CE44 n0:132 VSS! 1.18138e-18 $lvl=3
CE45 n0:183 VSS! 2.3639e-17 $lvl=2
CE46 n0:186 VSS! 7.56711e-18 $lvl=2
CE47 n0:177 VSS! 7.27677e-18 $lvl=2
CE48 n0:181 VSS! 6.32138e-19 $lvl=2
CE49 n0:172 VSS! 2.83743e-18 $lvl=2
CE50 n0:176 VSS! 3.04686e-18 $lvl=2
CE51 n0:167 VSS! 3.54907e-18 $lvl=2
CE52 n0:171 VSS! 1.27082e-18 $lvl=2
CE53 n0:162 VSS! 2.16416e-18 $lvl=2
CE54 n0:166 VSS! 2.59932e-18 $lvl=2
CE55 n0:185 VSS! 2.41689e-18 $lvl=2
CE56 n0:168 VSS! 2.50541e-18 $lvl=2
CE57 n0:163 VSS! 2.45749e-18 $lvl=2
CE58 n0:178 VSS! 2.29682e-18 $lvl=2
CE59 n0:184 VSS! 7.81458e-18 $lvl=2
CE60 n0:175 VSS! 2.04486e-18 $lvl=2
CE61 n0:122 VSS! 1.62848e-16 $lvl=3
CE62 n0 VSS! 1.29171e-18 $lvl=3
CE63 n0:196 VSS!:43 9.92354e-18 $lvl1=1 $lvl2=2
CE64 n0:196 VSS!:46 9.78387e-18 $lvl1=1 $lvl2=2
CE65 Mmn1@14:g VSS!:9 9.46197e-18 $lvl1=3 $lvl2=2
CE66 n0:183 VSS!:34 9.41034e-18 $lvl1=2 $lvl2=2
CE67 n0:183 VSS!:37 7.75051e-18 $lvl1=2 $lvl2=2
CE68 Mmn1@15:g VSS!:10 7.65888e-18 $lvl1=3 $lvl2=2
CE69 Mmn1@3:g VSS!:11 7.39131e-18 $lvl1=3 $lvl2=2
CE70 n0:177 VSS!:17 7.38873e-18 $lvl1=2 $lvl2=2
CE71 n0:122 VSS!:28 7.3082e-18 $lvl1=3 $lvl2=2
CE72 n0:122 VSS!:31 7.21343e-18 $lvl1=3 $lvl2=2
CE73 Mmn1@9:g VSS!:9 7.09183e-18 $lvl1=3 $lvl2=2
CE74 n0:181 VSS!:17 7.06184e-18 $lvl1=2 $lvl2=2
CE75 n0:122 VSS!:34 7.02664e-18 $lvl1=3 $lvl2=2
CE76 n0:183 VSS!:28 6.97619e-18 $lvl1=2 $lvl2=2
CE77 Mmn1@7:g VSS!:15 6.93421e-18 $lvl1=3 $lvl2=2
CE78 n0:154 VSS!:15 6.93368e-18 $lvl1=3 $lvl2=2
CE79 Mmn1@5:g VSS!:15 6.93022e-18 $lvl1=3 $lvl2=2
CE80 n0:122 VSS!:37 6.80816e-18 $lvl1=3 $lvl2=2
CE81 n0:167 VSS!:17 6.78267e-18 $lvl1=2 $lvl2=2
CE82 Mmn1@1:g VSS!:12 6.71672e-18 $lvl1=3 $lvl2=2
CE83 Mmn1@8:g VSS!:5 6.46586e-18 $lvl1=3 $lvl2=2
CE84 n0:190 VSS!:46 6.40115e-18 $lvl1=1 $lvl2=2
CE85 n0:171 VSS!:18 6.33514e-18 $lvl1=2 $lvl2=2
CE86 n0:122 VSS!:22 6.25099e-18 $lvl1=3 $lvl2=2
CE87 n0:181 VSS!:16 5.71585e-18 $lvl1=2 $lvl2=2
CE88 n0:171 VSS!:46 5.69929e-18 $lvl1=2 $lvl2=2
CE89 n0:183 VSS!:40 5.48069e-18 $lvl1=2 $lvl2=2
CE90 n0:122 VSS!:25 5.23642e-18 $lvl1=3 $lvl2=2
CE91 n0 VSS!:16 5.23439e-18 $lvl1=3 $lvl2=2
CE92 n0:171 VSS!:17 4.94703e-18 $lvl1=2 $lvl2=2
CE93 n0:146 VSS!:11 4.83692e-18 $lvl1=3 $lvl2=2
CE94 n0:150 VSS!:15 4.77804e-18 $lvl1=3 $lvl2=2
CE95 n0:177 VSS!:16 4.55985e-18 $lvl1=2 $lvl2=2
CE96 n0:189 VSS!:49 4.35864e-18 $lvl1=1 $lvl2=2
CE97 n0:183 VSS!:22 4.17494e-18 $lvl1=2 $lvl2=2
CE98 n0:181 VSS!:43 4.02849e-18 $lvl1=2 $lvl2=2
CE99 n0:181 VSS!:46 3.86904e-18 $lvl1=2 $lvl2=2
CE100 Mmn1@14:g VSS!:28 3.78788e-18 $lvl1=3 $lvl2=2
CE101 n0:186 VSS!:49 3.74896e-18 $lvl1=2 $lvl2=2
CE102 n0:150 VSS!:12 3.71139e-18 $lvl1=3 $lvl2=2
CE103 n0:167 VSS!:18 3.61088e-18 $lvl1=2 $lvl2=2
CE104 n0:122 VSS!:40 3.52671e-18 $lvl1=3 $lvl2=2
CE105 n0:171 VSS!:49 3.40084e-18 $lvl1=2 $lvl2=2
CE106 Mmn1@3:g VSS!:10 3.1993e-18 $lvl1=3 $lvl2=2
CE107 n0:183 VSS!:31 3.12964e-18 $lvl1=2 $lvl2=2
CE108 n0:168 VSS!:52 3.03995e-18 $lvl1=2 $lvl2=1
CE109 Mmn1@1:g VSS!:31 3.012e-18 $lvl1=3 $lvl2=2
CE110 n0:146 VSS!:34 2.95861e-18 $lvl1=3 $lvl2=2
CE111 n0:190 VSS!:13 2.83573e-18 $lvl1=1 $lvl2=2
CE112 n0:158 VSS!:15 2.61975e-18 $lvl1=3 $lvl2=2
CE113 n0:178 VSS!:52 2.59373e-18 $lvl1=2 $lvl2=1
CE114 Mmn1@15:g VSS!:9 2.5851e-18 $lvl1=3 $lvl2=2
CE115 n0:190 VSS!:18 2.52599e-18 $lvl1=1 $lvl2=2
CE116 n0:183 VSS!:25 2.49431e-18 $lvl1=2 $lvl2=2
CE117 n0:195 VSS!:52 2.47285e-18 $lvl1=1 $lvl2=1
CE118 n0:142 VSS!:11 2.46533e-18 $lvl1=3 $lvl2=2
CE119 n0:122 VSS!:43 2.46219e-18 $lvl1=3 $lvl2=2
CE120 Mmn1@7:g VSS!:34 2.30066e-18 $lvl1=3 $lvl2=2
CE121 n0:158 VSS!:16 2.28014e-18 $lvl1=3 $lvl2=2
CE122 n0:183 VSS!:1 2.25801e-18 $lvl1=2 $lvl2=2
CE123 n0:184 VSS!:43 2.24281e-18 $lvl1=2 $lvl2=2
CE124 n0:122 VSS!:1 2.19492e-18 $lvl1=3 $lvl2=2
CE125 n0:178 VSS!:13 2.12853e-18 $lvl1=2 $lvl2=2
CE126 n0:171 VSS!:13 2.0803e-18 $lvl1=2 $lvl2=2
CE127 n0:150 VSS!:37 2.07193e-18 $lvl1=3 $lvl2=2
CE128 n0:168 VSS!:18 2.06677e-18 $lvl1=2 $lvl2=2
CE129 n0:195 VSS!:43 2.06421e-18 $lvl1=1 $lvl2=2
CE130 Mmn1@10:g VSS!:22 1.91498e-18 $lvl1=3 $lvl2=2
CE131 n0:122 Mmn1@2:d 1.91247e-18 $lvl1=3 $lvl2=4
CE132 Mmn1@8:g VSS!:9 1.85957e-18 $lvl1=3 $lvl2=2
CE133 n0:197 VSS!:13 1.82487e-18 $lvl1=1 $lvl2=2
CE134 n0:154 VSS!:40 1.81888e-18 $lvl1=3 $lvl2=2
CE135 n0:168 VSS!:17 1.80853e-18 $lvl1=2 $lvl2=2
CE136 n0:168 VSS!:13 1.76767e-18 $lvl1=2 $lvl2=2
CE137 n0:181 VSS!:13 1.73274e-18 $lvl1=2 $lvl2=2
CE138 n0:183 VSS!:43 1.71213e-18 $lvl1=2 $lvl2=2
CE139 n0:189 VSS!:52 1.70517e-18 $lvl1=1 $lvl2=1
CE140 n0:178 VSS!:16 1.61796e-18 $lvl1=2 $lvl2=2
CE141 n0:181 VSS!:52 1.58473e-18 $lvl1=2 $lvl2=1
CE142 n0:178 VSS!:17 1.58194e-18 $lvl1=2 $lvl2=2
CE143 Mmn1@3:g VSS!:28 1.5264e-18 $lvl1=3 $lvl2=2
CE144 n0:188 VSS!:52 1.51856e-18 $lvl1=1 $lvl2=1
CE145 n0:132 VSS!:1 1.50442e-18 $lvl1=3 $lvl2=2
CE146 n0:122 Mmn1@8:d 1.48258e-18 $lvl1=3 $lvl2=4
CE147 n0:197 VSS!:43 1.46964e-18 $lvl1=1 $lvl2=2
CE148 Mmn1@14:g VSS!:10 1.45073e-18 $lvl1=3 $lvl2=2
CE149 n0:183 VSS!:50 1.43567e-18 $lvl1=2 $lvl2=1
CE150 Mmn1@15:g VSS!:25 1.38668e-18 $lvl1=3 $lvl2=2
CE151 n0:190 VSS!:17 1.33358e-18 $lvl1=1 $lvl2=2
CE152 Mmn0:s VSS!:49 1.30364e-18 $lvl1=4 $lvl2=2
CE153 n0:142 VSS!:31 1.28886e-18 $lvl1=3 $lvl2=2
CE154 n0:171 VSS!:52 1.25215e-18 $lvl1=2 $lvl2=1
CE155 n0:142 VSS!:10 1.23896e-18 $lvl1=3 $lvl2=2
CE156 n0:158 VSS!:43 1.23398e-18 $lvl1=3 $lvl2=2
CE157 n0:122 Mmn1@6:d 1.21644e-18 $lvl1=3 $lvl2=4
CE158 n0 VSS!:40 1.14651e-18 $lvl1=3 $lvl2=2
CE159 Mmn1@1:g VSS!:15 1.13926e-18 $lvl1=3 $lvl2=2
CE160 Mmn1@8:g VSS!:25 1.12359e-18 $lvl1=3 $lvl2=2
CE161 n0:185 VSS!:49 1.11102e-18 $lvl1=2 $lvl2=2
CE162 n0:146 VSS!:12 1.11021e-18 $lvl1=3 $lvl2=2
CE163 n0:188 VSS!:49 1.10746e-18 $lvl1=1 $lvl2=2
CE164 Mmn0:s VSS!:17 1.08773e-18 $lvl1=4 $lvl2=2
CE165 n0:122 Mmn1@14:d 1.04677e-18 $lvl1=3 $lvl2=4
CE166 n0:189 VSS!:53 1.04143e-18 $lvl1=1 $lvl2=1
CE167 n0 VSS!:17 1.03653e-18 $lvl1=3 $lvl2=2
CE168 n0:177 Mmn0@2:d 1.02298e-18 $lvl1=2 $lvl2=4
CE169 n0:122 Mmn1@12:d 1.0208e-18 $lvl1=3 $lvl2=4
CE170 Mmn1@8:g VSS!:51 9.46605e-19 $lvl1=3 $lvl2=1
CE171 n0:194 VSS!:52 9.41246e-19 $lvl1=1 $lvl2=1
CE172 n0:196 VSS!:13 9.3504e-19 $lvl1=1 $lvl2=2
CE173 n0:133 VSS!:22 9.16077e-19 $lvl1=3 $lvl2=2
CE174 Mmn1@5:g VSS!:16 9.11341e-19 $lvl1=3 $lvl2=2
CE175 n0:183 VSS!:12 9.02514e-19 $lvl1=2 $lvl2=2
CE176 n0:183 Mmn1@14:d 8.99925e-19 $lvl1=2 $lvl2=4
CE177 n0:183 Mmn1@10:d 8.61876e-19 $lvl1=2 $lvl2=4
CE178 Mmn1@1:g VSS!:10 8.32571e-19 $lvl1=3 $lvl2=2
CE179 n0:183 Mmn1@8:d 7.9743e-19 $lvl1=2 $lvl2=4
CE180 n0:183 VSS!:52 7.92244e-19 $lvl1=2 $lvl2=1
CE181 n0:188 VSS!:53 7.88595e-19 $lvl1=1 $lvl2=1
CE182 n0:196 VSS!:17 7.7683e-19 $lvl1=1 $lvl2=2
CE183 n0:122 Mmn1@4:d 7.66425e-19 $lvl1=3 $lvl2=4
CE184 n0:196 VSS!:53 7.65862e-19 $lvl1=1 $lvl2=1
CE185 Mmn1@9:g VSS!:22 7.49182e-19 $lvl1=3 $lvl2=2
CE186 n0:190 VSS!:53 1.29804e-17 $lvl1=1 $lvl2=1
CE187 n0:158 VSS!:40 1.38141e-16 $lvl1=3 $lvl2=2
CE188 n0:196 VSS!:52 2.20036e-17 $lvl1=1 $lvl2=1
CE189 Mmn1@9:g VSS!:25 8.00894e-17 $lvl1=3 $lvl2=2
CE190 n0:178 VSS!:46 1.42801e-17 $lvl1=2 $lvl2=2
CE191 n0:167 VSS!:49 3.48924e-17 $lvl1=2 $lvl2=2
CE192 n0:132 VSS!:5 1.03747e-17 $lvl1=3 $lvl2=2
CE193 Mmn1@5:g VSS!:40 1.23568e-16 $lvl1=3 $lvl2=2
CE194 n0:167 VSS!:46 4.13348e-17 $lvl1=2 $lvl2=2
CE195 n0:168 VSS!:46 1.61921e-17 $lvl1=2 $lvl2=2
CE196 n0:132 VSS!:22 1.08583e-16 $lvl1=3 $lvl2=2
CE197 Mmn1@10:g VSS!:5 1.64925e-17 $lvl1=3 $lvl2=2
CE198 Mmn1@7:g VSS!:37 1.40921e-16 $lvl1=3 $lvl2=2
CE199 n0:190 VSS!:49 1.80037e-17 $lvl1=1 $lvl2=2
CE200 Mmn1@1:g VSS!:34 1.07891e-16 $lvl1=3 $lvl2=2
CE201 n0:142 VSS!:28 1.30249e-16 $lvl1=3 $lvl2=2
CE202 n0:178 VSS!:43 1.36835e-17 $lvl1=2 $lvl2=2
CE203 Mmn1@14:g VSS!:25 1.28604e-16 $lvl1=3 $lvl2=2
CE204 n0:190 VSS!:52 5.3007e-17 $lvl1=1 $lvl2=1
CE205 n0:146 VSS!:31 1.41119e-16 $lvl1=3 $lvl2=2
CE206 Mmn1@8:g VSS!:22 1.17563e-16 $lvl1=3 $lvl2=2
CE207 Mmn1@3:g VSS!:31 1.19001e-16 $lvl1=3 $lvl2=2
CE208 n0:197 VSS!:52 2.75292e-17 $lvl1=1 $lvl2=1
CE209 n0:150 VSS!:34 1.26186e-16 $lvl1=3 $lvl2=2
CE210 n0:168 VSS!:49 1.60423e-17 $lvl1=2 $lvl2=2
CE211 n0:177 VSS!:46 3.46028e-17 $lvl1=2 $lvl2=2
CE212 Mmn1@10:g VSS!:1 1.12341e-16 $lvl1=3 $lvl2=2
CE213 n0 VSS!:43 1.28531e-16 $lvl1=3 $lvl2=2
CE214 n0:154 VSS!:37 1.29968e-16 $lvl1=3 $lvl2=2
CE215 Mmn1@15:g VSS!:28 1.12514e-16 $lvl1=3 $lvl2=2
CE216 n0:177 VSS!:43 3.57469e-17 $lvl1=2 $lvl2=2
ReE321 n0:187 n0:188 0.047078 $metal1  $L=0.145 $W=0.385000 $SI_W=0.385 $TYPE=10 $DIR=1 $LLX=0.420000 $LLY=3.200000 $URX=0.805000 $URY=3.345000 $lvl=1
ReE322 n0:188 n0:189 0.777174 $metal1  $L=1.43 $W=0.230000 $SI_W=0.23 $TYPE=10 $DIR=1 $LLX=0.420000 $LLY=1.770000 $URX=0.650000 $URY=3.200000 $lvl=1
ReE323 n0:189 n0:190 0.364212 $metal1  $L=0.67 $W=0.230000 $SI_W=0.23 $TYPE=10 $DIR=1 $LLX=0.420000 $LLY=1.099500 $URX=0.650000 $URY=1.769500 $lvl=1
ReE324 n0:190 n0:191 0.125539 $metal1  $L=0.3245 $W=0.385000 $SI_W=0.385 $TYPE=10 $DIR=1 $LLX=0.420000 $LLY=0.775000 $URX=0.805000 $URY=1.099500 $lvl=1
ReE325 n0:191 n0:192 0.105519 $metal1  $L=0.325 $W=0.385000 $SI_W=0.385 $TYPE=10 $DIR=1 $LLX=0.497500 $LLY=0.450000 $URX=0.882500 $URY=0.775000 $lvl=1
ReE326 n0:193 n0:194 0.274457 $metal1  $L=0.505 $W=0.230000 $SI_W=0.23 $TYPE=10 $DIR=1 $LLX=1.435000 $LLY=2.985000 $URX=1.665000 $URY=3.490000 $lvl=1
ReE327 n0:194 n0:195 0.660326 $metal1  $L=1.215 $W=0.230000 $SI_W=0.23 $TYPE=10 $DIR=1 $LLX=1.435000 $LLY=1.770000 $URX=1.665000 $URY=2.985000 $lvl=1
ReE328 n0:195 n0:196 0.540761 $metal1  $L=0.995 $W=0.230000 $SI_W=0.23 $TYPE=10 $DIR=1 $LLX=1.435000 $LLY=0.775000 $URX=1.665000 $URY=1.770000 $lvl=1
ReE329 n0:196 n0:197 0.176630 $metal1  $L=0.325 $W=0.230000 $SI_W=0.23 $TYPE=10 $DIR=1 $LLX=1.435000 $LLY=0.450000 $URX=1.665000 $URY=0.775000 $lvl=1
RfE330 n0:162 n0:163 30.117649 $li  $L=0.4 $W=0.170000 $SI_W=0.17 $TYPE=10 $DIR=1 $LLX=0.605000 $LLY=3.345000 $URX=0.775000 $URY=3.745000 $lvl=2
RfE331 n0:163 n0:165 24.847057 $li  $L=0.33 $W=0.170000 $SI_W=0.17 $TYPE=10 $DIR=1 $LLX=0.605000 $LLY=3.015000 $URX=0.775000 $URY=3.345000 $lvl=2
RfE332 n0:165 n0:166 54.964703 $li  $L=0.73 $W=0.170000 $SI_W=0.17 $TYPE=10 $DIR=1 $LLX=0.605000 $LLY=2.285000 $URX=0.775000 $URY=3.015000 $lvl=2
RfE333 n0:167 n0:168 28.611765 $li  $L=0.38 $W=0.170000 $SI_W=0.17 $TYPE=10 $DIR=1 $LLX=0.605000 $LLY=0.775000 $URX=0.775000 $URY=1.155000 $lvl=2
RfE334 n0:168 n0:171 28.611765 $li  $L=0.38 $W=0.170000 $SI_W=0.17 $TYPE=10 $DIR=1 $LLX=0.605000 $LLY=0.395000 $URX=0.775000 $URY=0.775000 $lvl=2
RfE335 n0:172 n0:174 54.964703 $li  $L=0.73 $W=0.170000 $SI_W=0.17 $TYPE=10 $DIR=1 $LLX=1.465000 $LLY=3.015000 $URX=1.635000 $URY=3.745000 $lvl=2
RfE336 n0:174 n0:175 0.431461 $li  $L=0.03 $W=0.170000 $SI_W=0.89 $TYPE=10 $DIR=1 $LLX=1.465000 $LLY=2.985000 $URX=1.635000 $URY=3.015000 $lvl=2
RfE337 n0:175 n0:176 52.705883 $li  $L=0.7 $W=0.170000 $SI_W=0.17 $TYPE=10 $DIR=1 $LLX=1.465000 $LLY=2.285000 $URX=1.635000 $URY=2.985000 $lvl=2
RfE338 n0:177 n0:178 28.611765 $li  $L=0.38 $W=0.170000 $SI_W=0.17 $TYPE=10 $DIR=1 $LLX=1.465000 $LLY=0.775000 $URX=1.635000 $URY=1.155000 $lvl=2
RfE339 n0:178 n0:181 28.611765 $li  $L=0.38 $W=0.170000 $SI_W=0.17 $TYPE=10 $DIR=1 $LLX=1.465000 $LLY=0.395000 $URX=1.635000 $URY=0.775000 $lvl=2
RfE340 n0:182 n0:183 239.058838 $li  $L=3.175 $W=0.170000 $SI_W=0.17 $TYPE=10 $DIR=0 $LLX=5.420000 $LLY=1.685000 $URX=8.595000 $URY=1.855000 $lvl=2
RfE341 n0:183 n0:184 291.388245 $li  $L=3.87 $W=0.170000 $SI_W=0.17 $TYPE=10 $DIR=0 $LLX=1.550000 $LLY=1.685000 $URX=5.420000 $URY=1.855000 $lvl=2
RfE342 n0:184 n0:185 76.423531 $li  $L=1.015 $W=0.170000 $SI_W=0.17 $TYPE=10 $DIR=0 $LLX=0.535000 $LLY=1.685000 $URX=1.550000 $URY=1.855000 $lvl=2
RfE343 n0:185 n0:186 12.423529 $li  $L=0.165 $W=0.170000 $SI_W=0.17 $TYPE=10 $DIR=0 $LLX=0.370000 $LLY=1.685000 $URX=0.535000 $URY=1.855000 $lvl=2
RgE344 n0:113 Mmp1@2:g 282.773346 $poly  $L=0.88 $W=0.150000 $SI_W=0.15 $TYPE=10 $DIR=1 $LLX=8.570000 $LLY=3.015000 $URX=8.720000 $URY=3.895000 $lvl=3
RgE345 Mmp1@2:g n0:114 399.979675 $poly  $L=1.24475 $W=0.150000 $SI_W=0.15 $TYPE=10 $DIR=1 $LLX=8.570000 $LLY=1.770000 $URX=8.720000 $URY=3.015000 $lvl=3
RgE346 n0:114 n0:115 76.762962 $poly  $L=0.43 $W=0.270000 $SI_W=0.27 $TYPE=10 $DIR=0 $LLX=8.215000 $LLY=1.635000 $URX=8.645000 $URY=1.905000 $lvl=3
RgE347 n0:115 n0:116 76.762962 $poly  $L=0.43 $W=0.270000 $SI_W=0.27 $TYPE=10 $DIR=0 $LLX=7.785000 $LLY=1.635000 $URX=8.215000 $URY=1.905000 $lvl=3
RgE348 n0:116 n0:117 76.762962 $poly  $L=0.43 $W=0.270000 $SI_W=0.27 $TYPE=10 $DIR=0 $LLX=7.355000 $LLY=1.635000 $URX=7.785000 $URY=1.905000 $lvl=3
RgE349 n0:117 n0:118 76.762962 $poly  $L=0.43 $W=0.270000 $SI_W=0.27 $TYPE=10 $DIR=0 $LLX=6.925000 $LLY=1.635000 $URX=7.355000 $URY=1.905000 $lvl=3
RgE350 n0:118 n0:119 76.762962 $poly  $L=0.43 $W=0.270000 $SI_W=0.27 $TYPE=10 $DIR=0 $LLX=6.495000 $LLY=1.635000 $URX=6.925000 $URY=1.905000 $lvl=3
RgE351 n0:119 n0:120 76.762962 $poly  $L=0.43 $W=0.270000 $SI_W=0.27 $TYPE=10 $DIR=0 $LLX=6.065000 $LLY=1.635000 $URX=6.495000 $URY=1.905000 $lvl=3
RgE352 n0:120 n0:121 76.762962 $poly  $L=0.43 $W=0.270000 $SI_W=0.27 $TYPE=10 $DIR=0 $LLX=5.635000 $LLY=1.635000 $URX=6.065000 $URY=1.905000 $lvl=3
RgE353 n0:121 n0:122 38.426109 $poly  $L=0.21525 $W=0.270000 $SI_W=0.27 $TYPE=10 $DIR=0 $LLX=5.420000 $LLY=1.635000 $URX=5.635000 $URY=1.905000 $lvl=3
RgE354 n0:122 n0:123 38.336849 $poly  $L=0.21475 $W=0.270000 $SI_W=0.27 $TYPE=10 $DIR=0 $LLX=5.205000 $LLY=1.635000 $URX=5.420000 $URY=1.905000 $lvl=3
RgE355 n0:123 n0:124 76.762962 $poly  $L=0.43 $W=0.270000 $SI_W=0.27 $TYPE=10 $DIR=0 $LLX=4.775000 $LLY=1.635000 $URX=5.205000 $URY=1.905000 $lvl=3
RgE356 n0:124 n0:125 76.762962 $poly  $L=0.43 $W=0.270000 $SI_W=0.27 $TYPE=10 $DIR=0 $LLX=4.345000 $LLY=1.635000 $URX=4.775000 $URY=1.905000 $lvl=3
RgE357 n0:125 n0:126 76.762962 $poly  $L=0.43 $W=0.270000 $SI_W=0.27 $TYPE=10 $DIR=0 $LLX=3.915000 $LLY=1.635000 $URX=4.345000 $URY=1.905000 $lvl=3
RgE358 n0:126 n0:127 76.762962 $poly  $L=0.43 $W=0.270000 $SI_W=0.27 $TYPE=10 $DIR=0 $LLX=3.485000 $LLY=1.635000 $URX=3.915000 $URY=1.905000 $lvl=3
RgE359 n0:127 n0:128 76.762962 $poly  $L=0.43 $W=0.270000 $SI_W=0.27 $TYPE=10 $DIR=0 $LLX=3.055000 $LLY=1.635000 $URX=3.485000 $URY=1.905000 $lvl=3
RgE360 n0:128 n0:129 76.762962 $poly  $L=0.43 $W=0.270000 $SI_W=0.27 $TYPE=10 $DIR=0 $LLX=2.625000 $LLY=1.635000 $URX=3.055000 $URY=1.905000 $lvl=3
RgE361 n0:129 n0:130 76.762962 $poly  $L=0.43 $W=0.270000 $SI_W=0.27 $TYPE=10 $DIR=0 $LLX=2.195000 $LLY=1.635000 $URX=2.625000 $URY=1.905000 $lvl=3
RgE362 n0:130 n0 319.807007 $poly  $L=0.99525 $W=0.150000 $SI_W=0.15 $TYPE=10 $DIR=1 $LLX=2.120000 $LLY=0.775000 $URX=2.270000 $URY=1.770000 $lvl=3
RgE363 n0:114 Mmn1@10:g 319.807007 $poly  $L=0.99525 $W=0.150000 $SI_W=0.15 $TYPE=10 $DIR=1 $LLX=8.570000 $LLY=0.775000 $URX=8.720000 $URY=1.770000 $lvl=3
RgE364 Mmn1@10:g n0:131 170.306671 $poly  $L=0.53 $W=0.150000 $SI_W=0.15 $TYPE=10 $DIR=1 $LLX=8.570000 $LLY=0.245000 $URX=8.720000 $URY=0.775000 $lvl=3
RgE365 n0:115 Mmn1@11:g 300.491302 $poly  $L=0.99525 $W=0.150000 $SI_W=0.15 $TYPE=10 $DIR=1 $LLX=8.140000 $LLY=0.775000 $URX=8.290000 $URY=1.770000 $lvl=3
RgE366 Mmn1@11:g n0:132 170.306671 $poly  $L=0.53 $W=0.150000 $SI_W=0.15 $TYPE=10 $DIR=1 $LLX=8.140000 $LLY=0.245000 $URX=8.290000 $URY=0.775000 $lvl=3
RgE367 n0:115 Mmp1@13:g 380.735382 $poly  $L=1.24475 $W=0.150000 $SI_W=0.15 $TYPE=10 $DIR=1 $LLX=8.140000 $LLY=1.770000 $URX=8.290000 $URY=3.015000 $lvl=3
RgE368 Mmp1@13:g n0:133 282.773346 $poly  $L=0.88 $W=0.150000 $SI_W=0.15 $TYPE=10 $DIR=1 $LLX=8.140000 $LLY=3.015000 $URX=8.290000 $URY=3.895000 $lvl=3
RgE369 n0:116 Mmn1@8:g 300.491302 $poly  $L=0.99525 $W=0.150000 $SI_W=0.15 $TYPE=10 $DIR=1 $LLX=7.710000 $LLY=0.775000 $URX=7.860000 $URY=1.770000 $lvl=3
RgE370 Mmn1@8:g n0:134 170.306671 $poly  $L=0.53 $W=0.150000 $SI_W=0.15 $TYPE=10 $DIR=1 $LLX=7.710000 $LLY=0.245000 $URX=7.860000 $URY=0.775000 $lvl=3