*
*|DSPF 1.5
*
*|DATE "Wed Jan  8 23:02:36 2025"
*|VENDOR "Cadence Design Systems"
*|PROGRAM "Cadence Quantus Extraction"
*|VERSION "22.1.0-p089 Linux 64 bit - (Thu Jan 19 11:47:08 PST 2023)"
*|DESIGN BUFX8_HS
*|DIVIDER /
*|DELIMITER :
*|DeviceFingerDelim "@"
*|BUSBIT []
*|GLOBAL_TEMPERATURE 25
*|OPERATING_TEMPERATURE 25

** *VIA_COVERAGE_CODES
** *index FF FS FP FU SF SS SP SU PF PS PP PU UF US UP UU X_by_Y
** * "FF" stands for Full landing and Full coverage
** *0 0 0 0 0 0 0 0 0 0 0 0 0 0 0 0 0
** *1 0 0 0 0 0 0 0 0 0 0 0 0 0 0 0 1 1x1
** *2 0 0 0 0 0 0 0 0 0 0 0 0 0 0 1 0 1x1
** *3 0 0 0 0 0 0 0 0 0 0 0 0 0 1 0 0 1x1
** *4 0 0 0 0 0 0 0 0 0 0 0 0 1 0 0 0 1x1
** *5 0 0 0 0 0 0 0 0 0 0 0 1 0 0 0 0 1x1
** *6 0 0 0 0 0 0 0 0 0 0 1 0 0 0 0 0 1x1
** *7 0 0 0 0 0 0 0 0 0 1 0 0 0 0 0 0 1x1
** *8 0 0 0 0 0 0 0 0 1 0 0 0 0 0 0 0 1x1
** *9 0 0 0 0 0 0 0 1 0 0 0 0 0 0 0 0 1x1
** *10 0 0 0 0 0 0 1 0 0 0 0 0 0 0 0 0 1x1
** *11 0 0 0 0 0 1 0 0 0 0 0 0 0 0 0 0 1x1
** *12 0 0 0 0 1 0 0 0 0 0 0 0 0 0 0 0 1x1
** *13 0 0 0 1 0 0 0 0 0 0 0 0 0 0 0 0 1x1
** *14 0 0 1 0 0 0 0 0 0 0 0 0 0 0 0 0 1x1
** *15 0 1 0 0 0 0 0 0 0 0 0 0 0 0 0 0 1x1
** *16 1 0 0 0 0 0 0 0 0 0 0 0 0 0 0 0 1x1

** *RESISTOR_TYPES
** *1 SHORTING_ELEMENT
** *2 PRES_NG
** *3 PRES_PG
** *4 PRES_NF
** *5 PRES_PF
** *6 TCN_NDIFF
** *7 TCN_PDIFF
** *8 TCN_NFIELD
** *9 TCN_PFIELD
** *10 QUALITY_EXTRACTED
** *11 GCNLAND
** *12 TCNLAND
** *13 DUMMY
** *14 RSD
** *15 BRIDGE

** *RESISTOR_CURRENT_DIRECTION
** *0 HORIZONTAL
** *1 VERTICAL
** *2 45 DEGREE

** QRC_TECH_DIR /vols/wfo_devel/projects/reference_SKY130/tech/sky130_release_0.0.4/quantus/extraction/typical 
** HIERARCHICAL_SPLIT_PINS_DELIMITER '%'
** caps2d version: 10
*
.SUBCKT  BUFX8_HS A Y
*
*Net Section
*
*|GROUND_NET VSS!
*
*LAYER_MAP
*0 none
*1 metal1
*2 li
*3 poly
*4 diff
*5 licon_diff
*6 mcon
*7 licon
*8 FOX

*|NET VDD! 5.36989e-15
*|P (VDD! X 0 2.4150 4.1450) // $llx=2.4150 $lly=4.1450 $urx=2.4150 $ury=4.1450 $lvl=1
*|I (Mmp1:s Mmp1 s X 0 1.2595 3.0150) // $llx=1.2595 $lly=3.0150 $urx=1.2595 $ury=3.0150 $lvl=4
*|I (Mmp1:b Mmp1 b X 0 1.3350 3.0150) // $llx=1.3350 $lly=3.0150 $urx=1.3350 $ury=3.0150 $lvl=8
*|I (Mmp1@5:s Mmp1@5 s X 0 1.8405 3.0150) // $llx=1.8405 $lly=3.0150 $urx=1.8405 $ury=3.0150 $lvl=4
*|I (Mmp1@5:b Mmp1@5 b X 0 1.7650 3.0150) // $llx=1.7650 $lly=3.0150 $urx=1.7650 $ury=3.0150 $lvl=8
*|I (Mmp1@4:s Mmp1@4 s X 0 2.1195 3.0150) // $llx=2.1195 $lly=3.0150 $urx=2.1195 $ury=3.0150 $lvl=4
*|I (Mmp1@4:b Mmp1@4 b X 0 2.1950 3.0150) // $llx=2.1950 $lly=3.0150 $urx=2.1950 $ury=3.0150 $lvl=8
*|I (Mmp1@7:s Mmp1@7 s X 0 2.7005 3.0150) // $llx=2.7005 $lly=3.0150 $urx=2.7005 $ury=3.0150 $lvl=4
*|I (Mmp1@7:b Mmp1@7 b X 0 2.6250 3.0150) // $llx=2.6250 $lly=3.0150 $urx=2.6250 $ury=3.0150 $lvl=8
*|I (Mmp1@6:s Mmp1@6 s X 0 2.9795 3.0150) // $llx=2.9795 $lly=3.0150 $urx=2.9795 $ury=3.0150 $lvl=4
*|I (Mmp1@6:b Mmp1@6 b X 0 3.0550 3.0150) // $llx=3.0550 $lly=3.0150 $urx=3.0550 $ury=3.0150 $lvl=8
*|I (Mmp1@3:s Mmp1@3 s X 0 3.5605 3.0150) // $llx=3.5605 $lly=3.0150 $urx=3.5605 $ury=3.0150 $lvl=4
*|I (Mmp1@3:b Mmp1@3 b X 0 3.4850 3.0150) // $llx=3.4850 $lly=3.0150 $urx=3.4850 $ury=3.0150 $lvl=8
*|I (Mmp1@1:s Mmp1@1 s X 0 3.8395 3.0150) // $llx=3.8395 $lly=3.0150 $urx=3.8395 $ury=3.0150 $lvl=4
*|I (Mmp1@1:b Mmp1@1 b X 0 3.9150 3.0150) // $llx=3.9150 $lly=3.0150 $urx=3.9150 $ury=3.0150 $lvl=8
*|I (Mmp1@2:s Mmp1@2 s X 0 4.4205 3.0150) // $llx=4.4205 $lly=3.0150 $urx=4.4205 $ury=3.0150 $lvl=4
*|I (Mmp1@2:b Mmp1@2 b X 0 4.3450 3.0150) // $llx=4.3450 $lly=3.0150 $urx=4.3450 $ury=3.0150 $lvl=8
*|I (Mmp0:s Mmp0 s X 0 0.3995 3.0150) // $llx=0.3995 $lly=3.0150 $urx=0.3995 $ury=3.0150 $lvl=4
*|I (Mmp0:b Mmp0 b X 0 0.4750 3.0150) // $llx=0.4750 $lly=3.0150 $urx=0.4750 $ury=3.0150 $lvl=8
*|I (Mmp0@1:s Mmp0@1 s X 0 0.9805 3.0150) // $llx=0.9805 $lly=3.0150 $urx=0.9805 $ury=3.0150 $lvl=4
*|I (Mmp0@1:b Mmp0@1 b X 0 0.9050 3.0150) // $llx=0.9050 $lly=3.0150 $urx=0.9050 $ury=3.0150 $lvl=8
*|S (VDD!:1 0.2600 2.2850) // $llx=0.2600 $lly=2.2850 $urx=0.2600 $ury=2.2850 $lvl=2
*|S (VDD!:3 0.2600 3.0150) // $llx=0.2600 $lly=3.0150 $urx=0.2600 $ury=3.0150 $lvl=2
*|S (VDD!:4 0.2600 4.1400) // $llx=0.2600 $lly=4.1400 $urx=0.2600 $ury=4.1400 $lvl=2
*|S (VDD!:5 0.0000 4.1400) // $llx=0.0000 $lly=4.1400 $urx=0.0000 $ury=4.1400 $lvl=2
*|S (VDD!:6 1.1200 4.1400) // $llx=1.1200 $lly=4.1400 $urx=1.1200 $ury=4.1400 $lvl=2
*|S (VDD!:8 1.1200 3.0150) // $llx=1.1200 $lly=3.0150 $urx=1.1200 $ury=3.0150 $lvl=2
*|S (VDD!:9 1.1200 2.2850) // $llx=1.1200 $lly=2.2850 $urx=1.1200 $ury=2.2850 $lvl=2
*|S (VDD!:10 1.9800 4.1400) // $llx=1.9800 $lly=4.1400 $urx=1.9800 $ury=4.1400 $lvl=2
*|S (VDD!:12 1.9800 3.0150) // $llx=1.9800 $lly=3.0150 $urx=1.9800 $ury=3.0150 $lvl=2
*|S (VDD!:13 1.9800 2.2850) // $llx=1.9800 $lly=2.2850 $urx=1.9800 $ury=2.2850 $lvl=2
*|S (VDD!:14 2.5300 4.1400) // $llx=2.5300 $lly=4.1400 $urx=2.5300 $ury=4.1400 $lvl=2
*|S (VDD!:15 2.5300 4.1400) // $llx=2.5300 $lly=4.1400 $urx=2.5300 $ury=4.1400 $lvl=4
*|S (VDD!:17 2.8400 4.1400) // $llx=2.8400 $lly=4.1400 $urx=2.8400 $ury=4.1400 $lvl=2
*|S (VDD!:19 2.8400 3.0150) // $llx=2.8400 $lly=3.0150 $urx=2.8400 $ury=3.0150 $lvl=2
*|S (VDD!:20 2.8400 2.2850) // $llx=2.8400 $lly=2.2850 $urx=2.8400 $ury=2.2850 $lvl=2
*|S (VDD!:21 3.7000 4.1400) // $llx=3.7000 $lly=4.1400 $urx=3.7000 $ury=4.1400 $lvl=2
*|S (VDD!:23 3.7000 3.0150) // $llx=3.7000 $lly=3.0150 $urx=3.7000 $ury=3.0150 $lvl=2
*|S (VDD!:24 3.7000 2.2850) // $llx=3.7000 $lly=2.2850 $urx=3.7000 $ury=2.2850 $lvl=2
*|S (VDD!:25 4.5600 4.1400) // $llx=4.5600 $lly=4.1400 $urx=4.5600 $ury=4.1400 $lvl=2
*|S (VDD!:27 4.5600 3.0150) // $llx=4.5600 $lly=3.0150 $urx=4.5600 $ury=3.0150 $lvl=2
*|S (VDD!:28 4.5600 2.2850) // $llx=4.5600 $lly=2.2850 $urx=4.5600 $ury=2.2850 $lvl=2
*|S (VDD!:29 5.0595 4.1400) // $llx=5.0595 $lly=4.1400 $urx=5.0595 $ury=4.1400 $lvl=2
*|S (VDD!:30 5.0600 4.1400) // $llx=5.0600 $lly=4.1400 $urx=5.0600 $ury=4.1400 $lvl=1
*|S (VDD!:31 2.5300 4.1400) // $llx=2.5300 $lly=4.1400 $urx=2.5300 $ury=4.1400 $lvl=1
*|S (VDD!:32 0.0000 4.1400) // $llx=0.0000 $lly=4.1400 $urx=0.0000 $ury=4.1400 $lvl=1
CC1 Mmp0:s VSS! 1.77899e-18 $lvl=4
CC2 Mmp1@2:s VSS! 2.24663e-18 $lvl=4
CC3 Mmp1@3:s VSS! 9.66492e-19 $lvl=4
CC4 Mmp1@7:s VSS! 1.62098e-18 $lvl=4
CC5 Mmp1@5:s VSS! 1.10266e-18 $lvl=4
CC6 Mmp1:s VSS! 3.83716e-19 $lvl=4
CC7 VDD!:31 VSS! 8.97708e-18 $lvl=1
CC8 VDD!:30 VSS! 5.94055e-18 $lvl=1
CC9 VDD!:32 VSS! 7.27534e-18 $lvl=1
CC10 VDD!:1 VSS! 9.60579e-18 $lvl=2
CC11 VDD!:9 VSS! 7.07185e-18 $lvl=2
CC12 VDD!:13 VSS! 6.05806e-18 $lvl=2
CC13 VDD!:20 VSS! 5.54955e-18 $lvl=2
CC14 VDD!:24 VSS! 2.56835e-18 $lvl=2
CC15 VDD!:28 VSS! 1.30602e-17 $lvl=2
CC16 VDD!:29 VSS! 2.48854e-18 $lvl=2
CC17 VDD!:25 VSS! 2.31361e-18 $lvl=2
CC18 VDD!:21 VSS! 2.57634e-18 $lvl=2
CC19 VDD!:10 VSS! 2.57106e-18 $lvl=2
CC20 VDD!:6 VSS! 2.6404e-18 $lvl=2
CC21 VDD!:4 VSS! 2.80788e-18 $lvl=2
CC22 VDD!:5 VSS! 2.16929e-18 $lvl=2
CC23 VDD!:15 VSS! 4.21887e-18 $lvl=4
CC24 VDD!:14 VSS! 1.7896e-18 $lvl=2
CC25 VDD! VSS! 5.95228e-18 $lvl=1
CC26 VDD! n0:62 9.45746e-18 $lvl1=1 $lvl2=3
CC27 VDD!:10 n0:75 9.20895e-18 $lvl1=2 $lvl2=3
CC28 VDD! n0:98 8.89524e-18 $lvl1=1 $lvl2=1
CC29 VDD!:21 n0:69 8.75942e-18 $lvl1=2 $lvl2=3
CC30 VDD!:6 n0:80 8.52715e-18 $lvl1=2 $lvl2=3
CC31 VDD!:10 n0:77 8.23072e-18 $lvl1=2 $lvl2=3
CC32 VDD!:10 n0:73 7.60143e-18 $lvl1=2 $lvl2=3
CC33 VDD!:9 n0:96 7.39211e-18 $lvl1=2 $lvl2=1
CC34 VDD!:9 n0:86 7.0355e-18 $lvl1=2 $lvl2=2
CC35 VDD! n0:97 6.92687e-18 $lvl1=1 $lvl2=1
CC36 VDD!:10 Mmp1@5:g 6.15106e-18 $lvl1=2 $lvl2=3
CC37 VDD!:32 n0:96 6.10304e-18 $lvl1=1 $lvl2=1
CC38 VDD!:31 n0:97 5.76779e-18 $lvl1=1 $lvl2=1
CC39 VDD! n0:92 5.49292e-18 $lvl1=1 $lvl2=2
CC40 VDD!:9 n0:83 5.38324e-18 $lvl1=2 $lvl2=2
CC41 VDD!:1 n0:86 5.27907e-18 $lvl1=2 $lvl2=2
CC42 VDD!:9 n0:98 4.64167e-18 $lvl1=2 $lvl2=1
CC43 VDD! n0:99 4.63936e-18 $lvl1=1 $lvl2=1
CC44 VDD!:21 n0:57 4.58594e-18 $lvl1=2 $lvl2=3
CC45 VDD!:1 n0:83 4.5359e-18 $lvl1=2 $lvl2=2
CC46 VDD!:21 n0:71 4.51751e-18 $lvl1=2 $lvl2=3
CC47 VDD!:31 n0:82 4.45071e-18 $lvl1=1 $lvl2=2
CC48 VDD!:25 n0:57 4.36356e-18 $lvl1=2 $lvl2=3
CC49 VDD!:20 n0:62 3.34682e-18 $lvl1=2 $lvl2=3
CC50 VDD!:24 n0:62 3.3205e-18 $lvl1=2 $lvl2=3
CC51 VDD!:24 n0:92 3.27351e-18 $lvl1=2 $lvl2=2
CC52 VDD!:13 n0:62 3.18783e-18 $lvl1=2 $lvl2=3
CC53 VDD!:13 n0:92 3.15724e-18 $lvl1=2 $lvl2=2
CC54 VDD!:10 n0:71 2.84077e-18 $lvl1=2 $lvl2=3
CC55 VDD!:20 n0:92 2.27747e-18 $lvl1=2 $lvl2=2
CC56 VDD!:6 Mmp1@5:g 2.18102e-18 $lvl1=2 $lvl2=3
CC57 VDD!:14 n0:82 2.16273e-18 $lvl1=2 $lvl2=2
CC58 VDD!:28 n0:92 2.14483e-18 $lvl1=2 $lvl2=2
CC59 VDD!:28 n0:62 1.8604e-18 $lvl1=2 $lvl2=3
CC60 VDD!:1 Mmp0:d 1.81322e-18 $lvl1=2 $lvl2=4
CC61 VDD!:9 Mmp0:d 1.62535e-18 $lvl1=2 $lvl2=4
CC62 VDD! n0:89 1.55471e-18 $lvl1=1 $lvl2=2
CC63 VDD!:31 n0:98 1.47412e-18 $lvl1=1 $lvl2=1
CC64 VDD!:10 n0:80 1.43044e-18 $lvl1=2 $lvl2=3
CC65 VDD!:4 n0:96 1.35538e-18 $lvl1=2 $lvl2=1
CC66 Mmp0:s n0:82 1.31568e-18 $lvl1=4 $lvl2=2
CC67 VDD!:14 n0:96 1.23971e-18 $lvl1=2 $lvl2=1
CC68 VDD!:13 n0:80 1.23823e-18 $lvl1=2 $lvl2=3
CC69 Mmp1:s n0:82 1.22846e-18 $lvl1=4 $lvl2=2
CC70 VDD!:31 n0:83 1.15767e-18 $lvl1=1 $lvl2=2
CC71 VDD!:6 Mmp0:d 1.1222e-18 $lvl1=2 $lvl2=4
CC72 VDD!:24 n0:57 1.10065e-18 $lvl1=2 $lvl2=3
CC73 VDD!:24 n0:73 1.03674e-18 $lvl1=2 $lvl2=3
CC74 VDD!:20 n0:77 1.02996e-18 $lvl1=2 $lvl2=3
CC75 VDD!:15 n0:82 9.58745e-19 $lvl1=4 $lvl2=2
CC76 VDD!:28 n0:69 9.46732e-19 $lvl1=2 $lvl2=3
CC77 VDD!:1 n0:82 9.31928e-17 $lvl1=2 $lvl2=2
CC78 VDD! n0:100 1.08486e-17 $lvl1=1 $lvl2=1
CC79 VDD!:9 n0:82 9.45879e-17 $lvl1=2 $lvl2=2
CC80 VDD! n0:96 1.5931e-17 $lvl1=1 $lvl2=1
CC81 VDD!:6 n0:82 1.05973e-17 $lvl1=2 $lvl2=2
CC82 VDD!:9 n0:97 3.00421e-17 $lvl1=2 $lvl2=1
CC83 VDD!:4 n0:82 1.34732e-17 $lvl1=2 $lvl2=2
CC84 VDD! n0:82 1.30966e-17 $lvl1=1 $lvl2=2
CC85 VDD!:20 n0:75 2.51402e-16 $lvl1=2 $lvl2=3
CC86 VDD!:24 n0:71 2.52648e-16 $lvl1=2 $lvl2=3
CC87 VDD!:9 n0:80 2.50393e-16 $lvl1=2 $lvl2=3
CC88 VDD!:28 n0:57 2.58142e-16 $lvl1=2 $lvl2=3
CC89 VDD!:13 n0:77 2.42401e-16 $lvl1=2 $lvl2=3
CC90 VDD!:31 n0:96 2.75142e-17 $lvl1=1 $lvl2=1
CC91 VDD!:20 n0:73 2.48034e-16 $lvl1=2 $lvl2=3
CC92 VDD!:24 n0:69 2.51653e-16 $lvl1=2 $lvl2=3
CC93 VDD!:13 Mmp1@5:g 2.51109e-16 $lvl1=2 $lvl2=3
CC94 VDD!:1 n0:96 1.54926e-17 $lvl1=2 $lvl2=1
CC95 VDD!:31 VSS!:31 2.20125e-18 $lvl1=1 $lvl2=1
CC96 VDD!:28 VSS!:1 2.04277e-18 $lvl1=2 $lvl2=2
CC97 VDD!:1 VSS!:29 1.30349e-18 $lvl1=2 $lvl2=2
CC98 VDD!:31 VSS!:1 1.26257e-18 $lvl1=1 $lvl2=2
CC99 VDD! VSS!:30 4.66351e-17 $lvl1=1 $lvl2=1
CC100 VDD! VSS!:32 2.39362e-17 $lvl1=1 $lvl2=1
CC101 VDD! VSS!:29 2.57113e-17 $lvl1=1 $lvl2=2
CC102 VDD! VSS!:14 1.12313e-17 $lvl1=1 $lvl2=2
CC103 VDD! VSS!:4 2.33089e-17 $lvl1=1 $lvl2=2
CC104 VDD! VSS!:5 1.71397e-17 $lvl1=1 $lvl2=2
CC105 VDD! VSS!:10 2.91361e-17 $lvl1=1 $lvl2=2
CC106 VDD! VSS!:11 1.66395e-17 $lvl1=1 $lvl2=2
CC107 VDD! VSS!:12 2.08665e-17 $lvl1=1 $lvl2=2
CC108 VDD! VSS!:13 1.23268e-17 $lvl1=1 $lvl2=2
CC109 VDD! VSS!:1 1.92981e-17 $lvl1=1 $lvl2=2
CC110 VDD! VSS!:7 1.37411e-17 $lvl1=1 $lvl2=2
CC111 VDD! VSS!:31 1.51955e-16 $lvl1=1 $lvl2=1
ReC87 VDD!:30 VDD!:31 0.790625 $metal1  $L=2.53 $W=0.400000 $SI_W=0.4 $TYPE=10 $DIR=0 $LLX=2.530000 $LLY=3.940000 $URX=5.060000 $URY=4.340000 $lvl=1
ReC88 VDD!:31 VDD! 0.035937 $metal1  $L=0.115 $W=0.400000 $SI_W=0.4 $TYPE=10 $DIR=0 $LLX=2.415000 $LLY=3.940000 $URX=2.530000 $URY=4.340000 $lvl=1
ReC89 VDD! VDD!:32 0.754687 $metal1  $L=2.415 $W=0.400000 $SI_W=0.4 $TYPE=10 $DIR=0 $LLX=0.000000 $LLY=3.940000 $URX=2.415000 $URY=4.340000 $lvl=1
RfC90 VDD!:1 VDD!:3 54.964703 $li  $L=0.73 $W=0.170000 $SI_W=0.17 $TYPE=10 $DIR=1 $LLX=0.175000 $LLY=2.285000 $URX=0.345000 $URY=3.015000 $lvl=2
RfC91 VDD!:3 VDD!:4 81.706917 $li  $L=1.12525 $W=0.170000 $SI_W=0.17 $TYPE=10 $DIR=1 $LLX=0.175000 $LLY=3.015000 $URX=0.345000 $URY=4.140000 $lvl=2
RfC92 VDD!:4 VDD!:5 13.324800 $li  $L=0.26025 $W=0.250000 $SI_W=0.25 $TYPE=10 $DIR=0 $LLX=0.000000 $LLY=4.015000 $URX=0.260000 $URY=4.265000 $lvl=2
RfC93 VDD!:4 VDD!:6 44.031998 $li  $L=0.86 $W=0.250000 $SI_W=0.25 $TYPE=10 $DIR=0 $LLX=0.260000 $LLY=4.015000 $URX=1.120000 $URY=4.265000 $lvl=2
RfC94 VDD!:6 VDD!:8 81.706917 $li  $L=1.12525 $W=0.170000 $SI_W=0.17 $TYPE=10 $DIR=1 $LLX=1.035000 $LLY=3.015000 $URX=1.205000 $URY=4.140000 $lvl=2
RfC95 VDD!:8 VDD!:9 54.964703 $li  $L=0.73 $W=0.170000 $SI_W=0.17 $TYPE=10 $DIR=1 $LLX=1.035000 $LLY=2.285000 $URX=1.205000 $URY=3.015000 $lvl=2
RfC96 VDD!:6 VDD!:10 44.031998 $li  $L=0.86 $W=0.250000 $SI_W=0.25 $TYPE=10 $DIR=0 $LLX=1.120000 $LLY=4.015000 $URX=1.980000 $URY=4.265000 $lvl=2
RfC97 VDD!:10 VDD!:12 81.706917 $li  $L=1.12525 $W=0.170000 $SI_W=0.17 $TYPE=10 $DIR=1 $LLX=1.895000 $LLY=3.015000 $URX=2.065000 $URY=4.140000 $lvl=2
RfC98 VDD!:12 VDD!:13 54.964703 $li  $L=0.73 $W=0.170000 $SI_W=0.17 $TYPE=10 $DIR=1 $LLX=1.895000 $LLY=2.285000 $URX=2.065000 $URY=3.015000 $lvl=2
RfC99 VDD!:10 VDD!:14 28.147198 $li  $L=0.54975 $W=0.250000 $SI_W=0.25 $TYPE=10 $DIR=0 $LLX=1.980000 $LLY=4.015000 $URX=2.530000 $URY=4.265000 $lvl=2
RfC100 VDD!:14 VDD!:17 15.884799 $li  $L=0.31025 $W=0.250000 $SI_W=0.25 $TYPE=10 $DIR=0 $LLX=2.530000 $LLY=4.015000 $URX=2.840000 $URY=4.265000 $lvl=2
RfC101 VDD!:17 VDD!:19 81.706917 $li  $L=1.12525 $W=0.170000 $SI_W=0.17 $TYPE=10 $DIR=1 $LLX=2.755000 $LLY=3.015000 $URX=2.925000 $URY=4.140000 $lvl=2
RfC102 VDD!:19 VDD!:20 54.964703 $li  $L=0.73 $W=0.170000 $SI_W=0.17 $TYPE=10 $DIR=1 $LLX=2.755000 $LLY=2.285000 $URX=2.925000 $URY=3.015000 $lvl=2
RfC103 VDD!:17 VDD!:21 44.031998 $li  $L=0.86 $W=0.250000 $SI_W=0.25 $TYPE=10 $DIR=0 $LLX=2.840000 $LLY=4.015000 $URX=3.700000 $URY=4.265000 $lvl=2
RfC104 VDD!:21 VDD!:23 81.706917 $li  $L=1.12525 $W=0.170000 $SI_W=0.17 $TYPE=10 $DIR=1 $LLX=3.615000 $LLY=3.015000 $URX=3.785000 $URY=4.140000 $lvl=2
RfC105 VDD!:23 VDD!:24 54.964703 $li  $L=0.73 $W=0.170000 $SI_W=0.17 $TYPE=10 $DIR=1 $LLX=3.615000 $LLY=2.285000 $URX=3.785000 $URY=3.015000 $lvl=2
RfC106 VDD!:21 VDD!:25 44.031998 $li  $L=0.86 $W=0.250000 $SI_W=0.25 $TYPE=10 $DIR=0 $LLX=3.700000 $LLY=4.015000 $URX=4.560000 $URY=4.265000 $lvl=2
RfC107 VDD!:25 VDD!:27 81.706917 $li  $L=1.12525 $W=0.170000 $SI_W=0.17 $TYPE=10 $DIR=1 $LLX=4.475000 $LLY=3.015000 $URX=4.645000 $URY=4.140000 $lvl=2
RfC108 VDD!:27 VDD!:28 54.964703 $li  $L=0.73 $W=0.170000 $SI_W=0.17 $TYPE=10 $DIR=1 $LLX=4.475000 $LLY=2.285000 $URX=4.645000 $URY=3.015000 $lvl=2
RfC109 VDD!:25 VDD!:29 25.561600 $li  $L=0.49925 $W=0.250000 $SI_W=0.25 $TYPE=10 $DIR=0 $LLX=4.560000 $LLY=4.015000 $URX=5.059000 $URY=4.265000 $lvl=2
Rh_1_C110 VDD!:15 VDD!:14 1.500000 $licon_diff  $A=0.289 $VC=0 $SAVL=0 $SAVC=0 $SI_A=0.289 $COVER_DIR=0 $LLX=0.000000 $LLY=0.000000 $URX=-0.289000 $URY=-10.000000 $lvl=5
Rh_2_C111 Mmp0:s VDD!:3 3.750000 $licon_diff  $A=0.1156 $VC=0 $SAVL=0 $SAVC=0 $SI_A=0.1156 $COVER_DIR=0 $LLX=0.000000 $LLY=0.000000 $URX=-0.115600 $URY=-4.000000 $lvl=5
Rh_2_C112 Mmp1:s VDD!:8 3.750000 $licon_diff  $A=0.1156 $VC=0 $SAVL=0 $SAVC=0 $SI_A=0.1156 $COVER_DIR=0 $LLX=0.000000 $LLY=0.000000 $URX=-0.115600 $URY=-4.000000 $lvl=5
Rh_2_C113 Mmp1@5:s VDD!:12 3.750000 $licon_diff  $A=0.1156 $VC=0 $SAVL=0 $SAVC=0 $SI_A=0.1156 $COVER_DIR=0 $LLX=0.000000 $LLY=0.000000 $URX=-0.115600 $URY=-4.000000 $lvl=5
Rh_2_C114 Mmp1@7:s VDD!:19 3.750000 $licon_diff  $A=0.1156 $VC=0 $SAVL=0 $SAVC=0 $SI_A=0.1156 $COVER_DIR=0 $LLX=0.000000 $LLY=0.000000 $URX=-0.115600 $URY=-4.000000 $lvl=5
Rh_2_C115 Mmp1@3:s VDD!:23 3.750000 $licon_diff  $A=0.1156 $VC=0 $SAVL=0 $SAVC=0 $SI_A=0.1156 $COVER_DIR=0 $LLX=0.000000 $LLY=0.000000 $URX=-0.115600 $URY=-4.000000 $lvl=5
Rh_2_C116 Mmp1@2:s VDD!:27 3.750000 $licon_diff  $A=0.1156 $VC=0 $SAVL=0 $SAVC=0 $SI_A=0.1156 $COVER_DIR=0 $LLX=0.000000 $LLY=0.000000 $URX=-0.115600 $URY=-4.000000 $lvl=5
RjC117 VDD!:14 VDD!:31 15.200000 $mcon  $A=0.289 $VC=0 $SAVL=0 $SAVC=0 $SI_A=0.289 $COVER_DIR=0 $LLX=0.000000 $LLY=0.000000 $URX=-0.289000 $URY=-10.000000 $lvl=6
RmwC118 Mmp1:b VDD! 0.001000 $FOX $W=1000000 $SI_W=1000000 $TYPE=1 $DIR=0
RmwC119 Mmp1@5:b VDD! 0.001000 $FOX $W=1000000 $SI_W=1000000 $TYPE=1 $DIR=0
RmwC120 Mmp1@4:s Mmp1@5:s 0.001000 $diff $W=1000000 $SI_W=1000000 $TYPE=1 $DIR=0
RmwC121 Mmp1@4:b VDD! 0.001000 $FOX $W=1000000 $SI_W=1000000 $TYPE=1 $DIR=0
RmwC122 Mmp1@7:b VDD! 0.001000 $FOX $W=1000000 $SI_W=1000000 $TYPE=1 $DIR=0
RmwC123 Mmp1@6:s Mmp1@7:s 0.001000 $diff $W=1000000 $SI_W=1000000 $TYPE=1 $DIR=0
RmwC124 Mmp1@6:b VDD! 0.001000 $FOX $W=1000000 $SI_W=1000000 $TYPE=1 $DIR=0
RmwC125 Mmp1@3:b VDD! 0.001000 $FOX $W=1000000 $SI_W=1000000 $TYPE=1 $DIR=0
RmwC126 Mmp1@1:s Mmp1@3:s 0.001000 $diff $W=1000000 $SI_W=1000000 $TYPE=1 $DIR=0
RmwC127 Mmp1@1:b VDD! 0.001000 $FOX $W=1000000 $SI_W=1000000 $TYPE=1 $DIR=0
RmwC128 Mmp1@2:b VDD! 0.001000 $FOX $W=1000000 $SI_W=1000000 $TYPE=1 $DIR=0
RmwC129 Mmp0:b VDD! 0.001000 $FOX $W=1000000 $SI_W=1000000 $TYPE=1 $DIR=0
RmwC130 Mmp0@1:s Mmp1:s 0.001000 $diff $W=1000000 $SI_W=1000000 $TYPE=1 $DIR=0
RmwC131 Mmp0@1:b VDD! 0.001000 $FOX $W=1000000 $SI_W=1000000 $TYPE=1 $DIR=0
*
*|NET A 1.99174e-15
*|P (A X 0 0.4750 1.9500) // $llx=0.4750 $lly=1.9500 $urx=0.4750 $ury=1.9500 $lvl=1
*|I (Mmp0:g Mmp0 g X 0 0.4750 3.0150) // $llx=0.4750 $lly=3.0150 $urx=0.4750 $ury=3.0150 $lvl=3
*|I (Mmp0@1:g Mmp0@1 g X 0 0.9050 3.0150) // $llx=0.9050 $lly=3.0150 $urx=0.9050 $ury=3.0150 $lvl=3
*|I (Mmn0:g Mmn0 g X 0 0.4750 0.7750) // $llx=0.4750 $lly=0.7750 $urx=0.4750 $ury=0.7750 $lvl=3
*|I (Mmn0@1:g Mmn0@1 g X 0 0.9050 0.7750) // $llx=0.9050 $lly=0.7750 $urx=0.9050 $ury=0.7750 $lvl=3
*|S (A:15 0.9050 3.8950) // $llx=0.9050 $lly=3.8950 $urx=0.9050 $ury=3.8950 $lvl=3
*|S (A:16 0.9050 1.9500) // $llx=0.9050 $lly=1.9500 $urx=0.9050 $ury=1.9500 $lvl=3
*|S (A:17 0.6900 1.9500) // $llx=0.6900 $lly=1.9500 $urx=0.6900 $ury=1.9500 $lvl=3
*|S (A:18 0.4750 1.9500) // $llx=0.4750 $lly=1.9500 $urx=0.4750 $ury=1.9500 $lvl=3
*|S (A:19 0.4650 1.7850) // $llx=0.4650 $lly=1.7850 $urx=0.4650 $ury=1.7850 $lvl=3
*|S (A:20 0.9150 1.7850) // $llx=0.9150 $lly=1.7850 $urx=0.9150 $ury=1.7850 $lvl=3
*|S (A:21 0.9050 0.2450) // $llx=0.9050 $lly=0.2450 $urx=0.9050 $ury=0.2450 $lvl=3
*|S (A:22 0.4650 2.1145) // $llx=0.4650 $lly=2.1145 $urx=0.4650 $ury=2.1145 $lvl=3
*|S (A:23 0.4750 3.8950) // $llx=0.4750 $lly=3.8950 $urx=0.4750 $ury=3.8950 $lvl=3
*|S (A:24 0.4750 0.2450) // $llx=0.4750 $lly=0.2450 $urx=0.4750 $ury=0.2450 $lvl=3
*|S (A:25 1.0300 1.9500) // $llx=1.0300 $lly=1.9500 $urx=1.0300 $ury=1.9500 $lvl=2
*|S (A:26 0.6900 1.9500) // $llx=0.6900 $lly=1.9500 $urx=0.6900 $ury=1.9500 $lvl=2
*|S (A:27 0.4600 1.9500) // $llx=0.4600 $lly=1.9500 $urx=0.4600 $ury=1.9500 $lvl=2
*|S (A:28 0.1650 1.9500) // $llx=0.1650 $lly=1.9500 $urx=0.1650 $ury=1.9500 $lvl=2
*|S (A:29 0.4600 2.5950) // $llx=0.4600 $lly=2.5950 $urx=0.4600 $ury=2.5950 $lvl=1
*|S (A:31 0.4600 1.3550) // $llx=0.4600 $lly=1.3550 $urx=0.4600 $ury=1.3550 $lvl=1
CA1 Mmn0@1:g VSS! 2.42195e-18 $lvl=3
CA2 Mmn0:g VSS! 2.29347e-18 $lvl=3
CA3 A:29 VSS! 4.73941e-18 $lvl=1
CA4 A:31 VSS! 6.93978e-18 $lvl=1
CA5 A:15 VSS! 2.43606e-18 $lvl=3
CA6 A:23 VSS! 1.75578e-18 $lvl=3
CA7 A:26 VSS! 5.50753e-18 $lvl=2
CA8 A:28 VSS! 5.64839e-18 $lvl=2
CA9 A:27 VSS! 2.17151e-18 $lvl=2
CA10 A:17 VSS! 2.42021e-17 $lvl=3
CA11 A VSS! 6.92106e-18 $lvl=1
CA12 A:26 n0:98 9.88967e-18 $lvl1=2 $lvl2=1
CA13 A n0:98 9.05369e-18 $lvl1=1 $lvl2=1
CA14 A:29 n0:98 9.01338e-18 $lvl1=1 $lvl2=1
CA15 A:26 n0:86 8.1911e-18 $lvl1=2 $lvl2=2
CA16 A:29 n0:82 7.85261e-18 $lvl1=1 $lvl2=2
CA17 A:17 n0:82 7.21018e-18 $lvl1=3 $lvl2=2
CA18 A:17 n0:86 5.70145e-18 $lvl1=3 $lvl2=2
CA19 A:17 n0:94 5.48993e-18 $lvl1=3 $lvl2=2
CA20 A:31 n0:89 5.3585e-18 $lvl1=1 $lvl2=2
CA21 A:26 n0:94 4.95404e-18 $lvl1=2 $lvl2=2
CA22 A:29 n0:86 4.02287e-18 $lvl1=1 $lvl2=2
CA23 A:31 n0:99 3.1382e-18 $lvl1=1 $lvl2=1
CA24 A:27 n0:86 2.80756e-18 $lvl1=2 $lvl2=2
CA25 A:17 n0:62 2.67161e-18 $lvl1=3 $lvl2=3
CA26 A:17 n0:89 2.63468e-18 $lvl1=3 $lvl2=2
CA27 A n0:97 2.33936e-18 $lvl1=1 $lvl2=1
CA28 A:17 n0:80 2.12825e-18 $lvl1=3 $lvl2=3
CA29 A:17 n0:98 2.04046e-18 $lvl1=3 $lvl2=1
CA30 A:26 n0:97 1.98838e-18 $lvl1=2 $lvl2=1
CA31 A:26 n0:82 1.94714e-18 $lvl1=2 $lvl2=2
CA32 A:31 n0:94 1.92322e-18 $lvl1=1 $lvl2=2
CA33 A:17 Mmp0:d 1.8953e-18 $lvl1=3 $lvl2=4
CA34 A:26 n0:93 1.81673e-18 $lvl1=2 $lvl2=2
CA35 Mmn0@1:g n0:94 1.76303e-18 $lvl1=3 $lvl2=2
CA36 A:29 n0:83 1.67466e-18 $lvl1=1 $lvl2=2
CA37 A:31 n0:93 1.51762e-18 $lvl1=1 $lvl2=2
CA38 A:31 n0:97 1.45111e-18 $lvl1=1 $lvl2=1
CA39 A:26 n0:89 1.24302e-18 $lvl1=2 $lvl2=2
CA40 A:26 n0:62 1.15627e-18 $lvl1=2 $lvl2=3
CA41 A n0:96 1.10643e-18 $lvl1=1 $lvl2=1
CA42 A:31 n0:96 9.89798e-19 $lvl1=1 $lvl2=1
CA43 A:17 n0:92 9.55413e-19 $lvl1=3 $lvl2=2
CA44 A:27 n0:98 9.41462e-19 $lvl1=2 $lvl2=1
CA45 A:26 n0:92 9.39884e-19 $lvl1=2 $lvl2=2
CA46 A n0:100 7.74877e-19 $lvl1=1 $lvl2=1
CA47 A:23 n0:86 7.62766e-19 $lvl1=3 $lvl2=2
CA48 A:27 n0:82 7.02531e-19 $lvl1=2 $lvl2=2
CA49 A:27 n0:89 6.89912e-19 $lvl1=2 $lvl2=2
CA50 Mmn0@1:g n0:62 6.85825e-19 $lvl1=3 $lvl2=3
CA51 A:28 n0:89 6.47451e-19 $lvl1=2 $lvl2=2
CA52 A:17 Mmn0:s 6.39129e-19 $lvl1=3 $lvl2=4
CA53 A:17 n0 5.78895e-19 $lvl1=3 $lvl2=3
CA54 A:29 n0:100 5.61073e-19 $lvl1=1 $lvl2=1
CA55 A:17 n0:93 5.56873e-19 $lvl1=3 $lvl2=2
CA56 Mmn0:g n0:94 5.40013e-19 $lvl1=3 $lvl2=2
CA57 A:15 n0:86 5.19964e-19 $lvl1=3 $lvl2=2
CA58 A:17 Mmp1@5:g 4.82746e-19 $lvl1=3 $lvl2=3
CA59 A:27 n0:94 4.78343e-19 $lvl1=2 $lvl2=2
CA60 A:28 n0:100 4.00855e-19 $lvl1=2 $lvl2=1
CA61 A:29 n0:96 2.11481e-17 $lvl1=1 $lvl2=1
CA62 Mmn0@1:g n0:89 1.26354e-16 $lvl1=3 $lvl2=2
CA63 A:29 n0:97 1.63412e-17 $lvl1=1 $lvl2=1
CA64 A:31 n0:100 1.18242e-17 $lvl1=1 $lvl2=1
CA65 Mmn0:g n0:89 1.27262e-16 $lvl1=3 $lvl2=2
CA66 A:15 n0:82 2.5688e-16 $lvl1=3 $lvl2=2
CA67 A:23 n0:82 2.569e-16 $lvl1=3 $lvl2=2
CA68 A:31 n0:98 2.21153e-17 $lvl1=1 $lvl2=1
CA69 Mmn0:g VSS!:12 6.91593e-18 $lvl1=3 $lvl2=2
CA70 Mmn0@1:g VSS!:11 6.56486e-18 $lvl1=3 $lvl2=2
CA71 A:17 VSS!:29 2.85412e-18 $lvl1=3 $lvl2=2
CA72 A:31 VSS!:31 2.7736e-18 $lvl1=1 $lvl2=1
CA73 A:28 VSS!:29 2.64627e-18 $lvl1=2 $lvl2=2
CA74 A:31 VSS!:32 2.27713e-18 $lvl1=1 $lvl2=1
CA75 Mmn0@1:g VSS!:12 1.78199e-18 $lvl1=3 $lvl2=2
CA76 Mmn0:g VSS!:11 1.30532e-18 $lvl1=3 $lvl2=2
CA77 A:17 VSS!:26 1.08992e-18 $lvl1=3 $lvl2=2
CA78 A:29 VSS!:31 9.90977e-19 $lvl1=1 $lvl2=1
CA79 A VSS!:29 9.83942e-19 $lvl1=1 $lvl2=2
CA80 A:27 VSS!:29 9.56124e-19 $lvl1=2 $lvl2=2
CA81 A:29 VSS!:29 9.47882e-19 $lvl1=1 $lvl2=2
CA82 A:26 VSS!:29 9.01052e-19 $lvl1=2 $lvl2=2
CA83 Mmn0@1:g VSS!:26 1.27828e-16 $lvl1=3 $lvl2=2
CA84 A:31 VSS!:29 9.98303e-18 $lvl1=1 $lvl2=2
CA85 Mmn0:g VSS!:29 1.27108e-16 $lvl1=3 $lvl2=2
CA86 A:28 VDD!:1 9.72811e-18 $lvl1=2 $lvl2=2
CA87 A:17 VDD! 9.19126e-18 $lvl1=3 $lvl2=1
CA88 A:17 VDD!:1 8.01684e-18 $lvl1=3 $lvl2=2
CA89 A:17 VDD!:9 7.53391e-18 $lvl1=3 $lvl2=2
CA90 A:26 VDD!:9 7.46478e-18 $lvl1=2 $lvl2=2
CA91 A:23 VDD!:4 6.95156e-18 $lvl1=3 $lvl2=2
CA92 A:15 VDD!:6 6.87873e-18 $lvl1=3 $lvl2=2
CA93 A VDD! 6.52252e-18 $lvl1=1 $lvl2=1
CA94 A:28 VDD! 6.48573e-18 $lvl1=2 $lvl2=1
CA95 A:27 VDD!:1 4.05622e-18 $lvl1=2 $lvl2=2
CA96 A:26 VDD!:1 2.34353e-18 $lvl1=2 $lvl2=2
CA97 A:29 VDD!:31 2.20048e-18 $lvl1=1 $lvl2=1
CA98 A:29 VDD!:9 2.13938e-18 $lvl1=1 $lvl2=2
CA99 A:31 VDD!:1 2.03339e-18 $lvl1=1 $lvl2=2
CA100 A VDD!:1 1.85016e-18 $lvl1=1 $lvl2=2
CA101 A:17 Mmp0:s 1.84265e-18 $lvl1=3 $lvl2=4
CA102 A:29 VDD!:32 1.58081e-18 $lvl1=1 $lvl2=1
CA103 A:23 VDD!:6 1.38513e-18 $lvl1=3 $lvl2=2
CA104 A:15 VDD!:4 1.22192e-18 $lvl1=3 $lvl2=2
CA105 A:27 VDD! 1.19281e-18 $lvl1=2 $lvl2=1
CA106 A:31 VDD!:31 1.09349e-18 $lvl1=1 $lvl2=1
CA107 A:17 Mmp1:s 9.18344e-19 $lvl1=3 $lvl2=4
CA108 A:23 VDD!:1 2.53268e-16 $lvl1=3 $lvl2=2
CA109 A:29 VDD! 1.6611e-17 $lvl1=1 $lvl2=1
CA110 A:31 VDD! 1.68352e-17 $lvl1=1 $lvl2=1
CA111 A:15 VDD!:9 2.5456e-16 $lvl1=3 $lvl2=2
CA112 A:29 VDD!:1 1.94794e-17 $lvl1=1 $lvl2=2
CA113 A:29 Y:47 2.66195e-18 $lvl1=1 $lvl2=1
CA114 A:31 Y:47 2.2462e-18 $lvl1=1 $lvl2=1
CA115 A:26 Y:47 1.83441e-18 $lvl1=2 $lvl2=1
CA116 A:29 Y:46 1.12906e-18 $lvl1=1 $lvl2=1
CA117 A:17 Y:47 1.00749e-18 $lvl1=3 $lvl2=1
CA118 A:31 Y:46 8.75171e-19 $lvl1=1 $lvl2=1
ReA1 A:29 A 0.310096 $metal1  $L=0.645 $W=0.260000 $SI_W=0.26 $TYPE=10 $DIR=1 $LLX=0.330000 $LLY=1.950000 $URX=0.590000 $URY=2.595000 $lvl=1
ReA2 A A:31 0.286058 $metal1  $L=0.595 $W=0.260000 $SI_W=0.26 $TYPE=10 $DIR=1 $LLX=0.330000 $LLY=1.355000 $URX=0.590000 $URY=1.950000 $lvl=1
RfA3 A:25 A:26 25.600000 $li  $L=0.34 $W=0.170000 $SI_W=0.17 $TYPE=10 $DIR=0 $LLX=0.690000 $LLY=1.865000 $URX=1.030000 $URY=2.035000 $lvl=2
RfA4 A:26 A:27 17.317646 $li  $L=0.23 $W=0.170000 $SI_W=0.17 $TYPE=10 $DIR=0 $LLX=0.460000 $LLY=1.865000 $URX=0.690000 $URY=2.035000 $lvl=2
RfA5 A:27 A:28 22.211765 $li  $L=0.295 $W=0.170000 $SI_W=0.17 $TYPE=10 $DIR=0 $LLX=0.165000 $LLY=1.865000 $URX=0.460000 $URY=2.035000 $lvl=2
RgA6 A:15 Mmp0@1:g 282.773346 $poly  $L=0.88 $W=0.150000 $SI_W=0.15 $TYPE=10 $DIR=1 $LLX=0.830000 $LLY=3.015000 $URX=0.980000 $URY=3.895000 $lvl=3
RgA7 Mmp0@1:g A:16 336.698853 $poly  $L=1.06475 $W=0.150000 $SI_W=0.15 $TYPE=10 $DIR=1 $LLX=0.830000 $LLY=1.950000 $URX=0.980000 $URY=3.015000 $lvl=3
RgA8 A:16 A:17 31.439547 $poly  $L=0.21525 $W=0.330000 $SI_W=0.33 $TYPE=10 $DIR=0 $LLX=0.690000 $LLY=1.785000 $URX=0.905000 $URY=2.115000 $lvl=3
RgA9 A:17 A:18 31.366514 $poly  $L=0.21475 $W=0.330000 $SI_W=0.33 $TYPE=10 $DIR=0 $LLX=0.475000 $LLY=1.785000 $URX=0.690000 $URY=2.115000 $lvl=3
RgA10 A:18 A:19 46.784668 $poly  $L=0.16475 $W=0.170000 $SI_W=0.17 $TYPE=10 $DIR=1 $LLX=0.380000 $LLY=1.785000 $URX=0.550000 $URY=1.950000 $lvl=3
RgA11 A:19 Mmn0:g 324.617523 $poly  $L=1.01 $W=0.150000 $SI_W=0.15 $TYPE=10 $DIR=1 $LLX=0.400000 $LLY=0.775000 $URX=0.550000 $URY=1.785000 $lvl=3
RgA12 A:16 A:20 46.784668 $poly  $L=0.16475 $W=0.170000 $SI_W=0.17 $TYPE=10 $DIR=1 $LLX=0.830000 $LLY=1.785000 $URX=1.000000 $URY=1.950000 $lvl=3
RgA13 A:20 Mmn0@1:g 324.617523 $poly  $L=1.01 $W=0.150000 $SI_W=0.15 $TYPE=10 $DIR=1 $LLX=0.830000 $LLY=0.775000 $URX=0.980000 $URY=1.785000 $lvl=3
RgA14 Mmn0@1:g A:21 170.306671 $poly  $L=0.53 $W=0.150000 $SI_W=0.15 $TYPE=10 $DIR=1 $LLX=0.830000 $LLY=0.245000 $URX=0.980000 $URY=0.775000 $lvl=3
RgA15 A:18 A:22 46.642902 $poly  $L=0.16425 $W=0.170000 $SI_W=0.17 $TYPE=10 $DIR=1 $LLX=0.380000 $LLY=1.950500 $URX=0.550000 $URY=2.114500 $lvl=3
RgA16 A:22 Mmp0:g 289.270874 $poly  $L=0.9 $W=0.150000 $SI_W=0.15 $TYPE=10 $DIR=1 $LLX=0.400000 $LLY=2.114500 $URX=0.550000 $URY=3.014500 $lvl=3
RgA17 Mmp0:g A:23 282.773346 $poly  $L=0.88 $W=0.150000 $SI_W=0.15 $TYPE=10 $DIR=1 $LLX=0.400000 $LLY=3.015000 $URX=0.550000 $URY=3.895000 $lvl=3
RgA18 Mmn0:g A:24 170.306671 $poly  $L=0.53 $W=0.150000 $SI_W=0.15 $TYPE=10 $DIR=1 $LLX=0.400000 $LLY=0.245000 $URX=0.550000 $URY=0.775000 $lvl=3
RjA19 A:27 A 152.000000 $mcon  $L=0.17 $W=0.17 $A=0.0289 $VC=0 $SAVL=0 $SAVC=0 $SI_A=0.0289 $COVER_DIR=0 $LLX=0.000000 $LLY=0.000000 $URX=0.170000 $URY=0.170000 $lvl=6
RiA20 A:17 A:26 7.500000 $licon  $A=0.0578 $VC=0 $SAVL=0 $SAVC=0 $SI_A=0.0578 $COVER_DIR=0 $LLX=0.000000 $LLY=0.000000 $URX=-0.057800 $URY=-2.000000 $lvl=7
*
*|NET Y 6.37736e-15
*|P (Y X 0 4.1550 1.9900) // $llx=4.1550 $lly=1.9900 $urx=4.1550 $ury=1.9900 $lvl=1
*|I (Mmp1:d Mmp1 d X 0 1.4105 3.0150) // $llx=1.4105 $lly=3.0150 $urx=1.4105 $ury=3.0150 $lvl=4
*|I (Mmp1@5:d Mmp1@5 d X 0 1.6895 3.0150) // $llx=1.6895 $lly=3.0150 $urx=1.6895 $ury=3.0150 $lvl=4
*|I (Mmp1@4:d Mmp1@4 d X 0 2.2705 3.0150) // $llx=2.2705 $lly=3.0150 $urx=2.2705 $ury=3.0150 $lvl=4
*|I (Mmp1@7:d Mmp1@7 d X 0 2.5495 3.0150) // $llx=2.5495 $lly=3.0150 $urx=2.5495 $ury=3.0150 $lvl=4
*|I (Mmp1@6:d Mmp1@6 d X 0 3.1305 3.0150) // $llx=3.1305 $lly=3.0150 $urx=3.1305 $ury=3.0150 $lvl=4
*|I (Mmp1@3:d Mmp1@3 d X 0 3.4095 3.0150) // $llx=3.4095 $lly=3.0150 $urx=3.4095 $ury=3.0150 $lvl=4
*|I (Mmp1@1:d Mmp1@1 d X 0 3.9905 3.0150) // $llx=3.9905 $lly=3.0150 $urx=3.9905 $ury=3.0150 $lvl=4
*|I (Mmp1@2:d Mmp1@2 d X 0 4.2695 3.0150) // $llx=4.2695 $lly=3.0150 $urx=4.2695 $ury=3.0150 $lvl=4
*|I (Mmn1:s Mmn1 s X 0 1.4105 0.7750) // $llx=1.4105 $lly=0.7750 $urx=1.4105 $ury=0.7750 $lvl=4
*|I (Mmn1@5:s Mmn1@5 s X 0 1.6895 0.7750) // $llx=1.6895 $lly=0.7750 $urx=1.6895 $ury=0.7750 $lvl=4
*|I (Mmn1@4:s Mmn1@4 s X 0 2.2705 0.7750) // $llx=2.2705 $lly=0.7750 $urx=2.2705 $ury=0.7750 $lvl=4
*|I (Mmn1@7:s Mmn1@7 s X 0 2.5495 0.7750) // $llx=2.5495 $lly=0.7750 $urx=2.5495 $ury=0.7750 $lvl=4
*|I (Mmn1@2:s Mmn1@2 s X 0 3.1305 0.7750) // $llx=3.1305 $lly=0.7750 $urx=3.1305 $ury=0.7750 $lvl=4
*|I (Mmn1@1:s Mmn1@1 s X 0 3.4095 0.7750) // $llx=3.4095 $lly=0.7750 $urx=3.4095 $ury=0.7750 $lvl=4
*|I (Mmn1@6:s Mmn1@6 s X 0 3.9905 0.7750) // $llx=3.9905 $lly=0.7750 $urx=3.9905 $ury=0.7750 $lvl=4
*|I (Mmn1@3:s Mmn1@3 s X 0 4.2695 0.7750) // $llx=4.2695 $lly=0.7750 $urx=4.2695 $ury=0.7750 $lvl=4
*|S (Y:1 1.5500 3.7450) // $llx=1.5500 $lly=3.7450 $urx=1.5500 $ury=3.7450 $lvl=2
*|S (Y:3 1.5500 3.0150) // $llx=1.5500 $lly=3.0150 $urx=1.5500 $ury=3.0150 $lvl=2
*|S (Y:4 1.5500 3.0050) // $llx=1.5500 $lly=3.0050 $urx=1.5500 $ury=3.0050 $lvl=2
*|S (Y:5 1.5500 2.2850) // $llx=1.5500 $lly=2.2850 $urx=1.5500 $ury=2.2850 $lvl=2
*|S (Y:6 1.5500 1.1550) // $llx=1.5500 $lly=1.1550 $urx=1.5500 $ury=1.1550 $lvl=2
*|S (Y:7 1.5500 0.9450) // $llx=1.5500 $lly=0.9450 $urx=1.5500 $ury=0.9450 $lvl=2
*|S (Y:9 1.5500 0.7750) // $llx=1.5500 $lly=0.7750 $urx=1.5500 $ury=0.7750 $lvl=2
*|S (Y:10 1.5500 0.6525) // $llx=1.5500 $lly=0.6525 $urx=1.5500 $ury=0.6525 $lvl=2
*|S (Y:11 1.5500 0.3950) // $llx=1.5500 $lly=0.3950 $urx=1.5500 $ury=0.3950 $lvl=2
*|S (Y:12 2.4100 3.7450) // $llx=2.4100 $lly=3.7450 $urx=2.4100 $ury=3.7450 $lvl=2
*|S (Y:14 2.4100 3.0150) // $llx=2.4100 $lly=3.0150 $urx=2.4100 $ury=3.0150 $lvl=2
*|S (Y:15 2.4100 3.0050) // $llx=2.4100 $lly=3.0050 $urx=2.4100 $ury=3.0050 $lvl=2
*|S (Y:16 2.4100 2.2850) // $llx=2.4100 $lly=2.2850 $urx=2.4100 $ury=2.2850 $lvl=2
*|S (Y:17 2.4100 1.1550) // $llx=2.4100 $lly=1.1550 $urx=2.4100 $ury=1.1550 $lvl=2
*|S (Y:18 2.4100 0.9450) // $llx=2.4100 $lly=0.9450 $urx=2.4100 $ury=0.9450 $lvl=2
*|S (Y:20 2.4100 0.7750) // $llx=2.4100 $lly=0.7750 $urx=2.4100 $ury=0.7750 $lvl=2
*|S (Y:21 2.4100 0.6525) // $llx=2.4100 $lly=0.6525 $urx=2.4100 $ury=0.6525 $lvl=2
*|S (Y:22 2.4100 0.3950) // $llx=2.4100 $lly=0.3950 $urx=2.4100 $ury=0.3950 $lvl=2