*
*|DSPF 1.5
*
*|DATE "Wed Jan  8 23:04:37 2025"
*|VENDOR "Cadence Design Systems"
*|PROGRAM "Cadence Quantus Extraction"
*|VERSION "22.1.0-p089 Linux 64 bit - (Thu Jan 19 11:47:08 PST 2023)"
*|DESIGN BUFX4_HS
*|DIVIDER /
*|DELIMITER :
*|DeviceFingerDelim "@"
*|BUSBIT []
*|GLOBAL_TEMPERATURE 25
*|OPERATING_TEMPERATURE 25

** *VIA_COVERAGE_CODES
** *index FF FS FP FU SF SS SP SU PF PS PP PU UF US UP UU X_by_Y
** * "FF" stands for Full landing and Full coverage
** *0 0 0 0 0 0 0 0 0 0 0 0 0 0 0 0 0
** *1 0 0 0 0 0 0 0 0 0 0 0 0 0 0 0 1 1x1
** *2 0 0 0 0 0 0 0 0 0 0 0 0 0 0 1 0 1x1
** *3 0 0 0 0 0 0 0 0 0 0 0 0 0 1 0 0 1x1
** *4 0 0 0 0 0 0 0 0 0 0 0 0 1 0 0 0 1x1
** *5 0 0 0 0 0 0 0 0 0 0 0 1 0 0 0 0 1x1
** *6 0 0 0 0 0 0 0 0 0 0 1 0 0 0 0 0 1x1
** *7 0 0 0 0 0 0 0 0 0 1 0 0 0 0 0 0 1x1
** *8 0 0 0 0 0 0 0 0 1 0 0 0 0 0 0 0 1x1
** *9 0 0 0 0 0 0 0 1 0 0 0 0 0 0 0 0 1x1
** *10 0 0 0 0 0 0 1 0 0 0 0 0 0 0 0 0 1x1
** *11 0 0 0 0 0 1 0 0 0 0 0 0 0 0 0 0 1x1
** *12 0 0 0 0 1 0 0 0 0 0 0 0 0 0 0 0 1x1
** *13 0 0 0 1 0 0 0 0 0 0 0 0 0 0 0 0 1x1
** *14 0 0 1 0 0 0 0 0 0 0 0 0 0 0 0 0 1x1
** *15 0 1 0 0 0 0 0 0 0 0 0 0 0 0 0 0 1x1
** *16 1 0 0 0 0 0 0 0 0 0 0 0 0 0 0 0 1x1

** *RESISTOR_TYPES
** *1 SHORTING_ELEMENT
** *2 PRES_NG
** *3 PRES_PG
** *4 PRES_NF
** *5 PRES_PF
** *6 TCN_NDIFF
** *7 TCN_PDIFF
** *8 TCN_NFIELD
** *9 TCN_PFIELD
** *10 QUALITY_EXTRACTED
** *11 GCNLAND
** *12 TCNLAND
** *13 DUMMY
** *14 RSD
** *15 BRIDGE

** *RESISTOR_CURRENT_DIRECTION
** *0 HORIZONTAL
** *1 VERTICAL
** *2 45 DEGREE

** QRC_TECH_DIR /vols/wfo_devel/projects/reference_SKY130/tech/sky130_release_0.0.4/quantus/extraction/typical 
** HIERARCHICAL_SPLIT_PINS_DELIMITER '%'
** caps2d version: 10
*
.SUBCKT  BUFX4_HS A Y
*
*Net Section
*
*|GROUND_NET VSS!
*
*LAYER_MAP
*0 none
*1 metal1
*2 li
*3 poly
*4 diff
*5 licon_diff
*6 mcon
*7 licon
*8 FOX

*|NET A 1.28779e-15
*|P (A X 0 0.9350 1.7600) // $llx=0.9350 $lly=1.7600 $urx=0.9350 $ury=1.7600 $lvl=1
*|I (Mmp0:g Mmp0 g X 0 0.4750 3.0150) // $llx=0.4750 $lly=3.0150 $urx=0.4750 $ury=3.0150 $lvl=3
*|I (Mmn0:g Mmn0 g X 0 0.4750 0.7750) // $llx=0.4750 $lly=0.7750 $urx=0.4750 $ury=0.7750 $lvl=3
*|S (A:8 0.4750 3.8950) // $llx=0.4750 $lly=3.8950 $urx=0.4750 $ury=3.8950 $lvl=3
*|S (A:9 0.4150 1.5945) // $llx=0.4150 $lly=1.5945 $urx=0.4150 $ury=1.5945 $lvl=3
*|S (A:10 0.4150 1.4300) // $llx=0.4150 $lly=1.4300 $urx=0.4150 $ury=1.4300 $lvl=3
*|S (A:11 0.4150 1.2650) // $llx=0.4150 $lly=1.2650 $urx=0.4150 $ury=1.2650 $lvl=3
*|S (A:12 0.4750 0.2450) // $llx=0.4750 $lly=0.2450 $urx=0.4750 $ury=0.2450 $lvl=3
*|S (A:13 1.0850 1.4300) // $llx=1.0850 $lly=1.4300 $urx=1.0850 $ury=1.4300 $lvl=2
*|S (A:14 0.9200 1.4300) // $llx=0.9200 $lly=1.4300 $urx=0.9200 $ury=1.4300 $lvl=2
*|S (A:15 0.4150 1.4300) // $llx=0.4150 $lly=1.4300 $urx=0.4150 $ury=1.4300 $lvl=2
*|S (A:16 0.2300 1.4300) // $llx=0.2300 $lly=1.4300 $urx=0.2300 $ury=1.4300 $lvl=2
*|S (A:17 0.9200 2.4050) // $llx=0.9200 $lly=2.4050 $urx=0.9200 $ury=2.4050 $lvl=1
*|S (A:18 0.9200 1.4300) // $llx=0.9200 $lly=1.4300 $urx=0.9200 $ury=1.4300 $lvl=1
*|S (A:19 0.9200 1.1650) // $llx=0.9200 $lly=1.1650 $urx=0.9200 $ury=1.1650 $lvl=1
CA1 A:18 VSS! 4.09594e-18 $lvl=1
CA2 A:17 VSS! 5.53877e-18 $lvl=1
CA3 A:19 VSS! 3.2788e-18 $lvl=1
CA4 A:8 VSS! 1.0032e-18 $lvl=3
CA5 A:12 VSS! 1.45668e-18 $lvl=3
CA6 A:15 VSS! 1.62756e-18 $lvl=2
CA7 A:13 VSS! 3.8702e-18 $lvl=2
CA8 A:16 VSS! 2.9253e-18 $lvl=2
CA9 A:14 VSS! 2.19363e-18 $lvl=2
CA10 A:10 VSS! 1.34357e-17 $lvl=3
CA11 A:18 n0:55 6.29587e-18 $lvl1=1 $lvl2=2
CA12 A:15 n0:55 6.10322e-18 $lvl1=2 $lvl2=2
CA13 A:10 n0:32 5.73598e-18 $lvl1=3 $lvl2=3
CA14 A:15 n0:49 5.27356e-18 $lvl1=2 $lvl2=2
CA15 A:14 n0:55 4.62065e-18 $lvl1=2 $lvl2=2
CA16 A:15 n0:60 3.49771e-18 $lvl1=2 $lvl2=1
CA17 A:16 n0:60 3.3604e-18 $lvl1=2 $lvl2=1
CA18 A:15 n0:61 2.97591e-18 $lvl1=2 $lvl2=1
CA19 A:19 n0:60 2.97167e-18 $lvl1=1 $lvl2=1
CA20 A:17 n0:57 2.8199e-18 $lvl1=1 $lvl2=2
CA21 A:10 Mmn0:s 2.48856e-18 $lvl1=3 $lvl2=4
CA22 A:16 n0:61 2.38128e-18 $lvl1=2 $lvl2=1
CA23 A:17 n0:61 2.11631e-18 $lvl1=1 $lvl2=1
CA24 A:17 n0:44 2.1057e-18 $lvl1=1 $lvl2=2
CA25 A:17 n0:32 1.97053e-18 $lvl1=1 $lvl2=3
CA26 A:15 n0:56 1.95086e-18 $lvl1=2 $lvl2=2
CA27 A:10 n0:55 1.89513e-18 $lvl1=3 $lvl2=2
CA28 A:16 n0:56 1.76603e-18 $lvl1=2 $lvl2=2
CA29 A:13 n0:42 1.69804e-18 $lvl1=2 $lvl2=3
CA30 A:10 n0:42 1.60102e-18 $lvl1=3 $lvl2=3
CA31 A:8 n0:32 1.48502e-18 $lvl1=3 $lvl2=3
CA32 A:15 n0:50 1.36752e-18 $lvl1=2 $lvl2=2
CA33 A:15 n0:32 1.31543e-18 $lvl1=2 $lvl2=3
CA34 A:16 n0:50 1.15274e-18 $lvl1=2 $lvl2=2
CA35 A:13 n0:57 1.14964e-18 $lvl1=2 $lvl2=2
CA36 A:8 n0:57 1.13403e-18 $lvl1=3 $lvl2=2
CA37 A:17 n0:48 1.12722e-18 $lvl1=1 $lvl2=2
CA38 A:17 n0:56 1.09739e-18 $lvl1=1 $lvl2=2
CA39 A:12 n0:32 1.02509e-18 $lvl1=3 $lvl2=3
CA40 A:13 n0:40 9.0278e-19 $lvl1=2 $lvl2=3
CA41 A:8 n0:48 8.76858e-19 $lvl1=3 $lvl2=2
CA42 A:18 n0:57 7.0503e-19 $lvl1=1 $lvl2=2
CA43 A:10 n0:60 6.96336e-19 $lvl1=3 $lvl2=1
CA44 A:10 n0:44 6.7683e-19 $lvl1=3 $lvl2=2
CA45 A:18 n0:58 6.16657e-19 $lvl1=1 $lvl2=1
CA46 A:12 n0:53 6.16288e-19 $lvl1=3 $lvl2=2
CA47 A:19 n0:55 5.90797e-19 $lvl1=1 $lvl2=2
CA48 A:10 n0:56 5.46008e-19 $lvl1=3 $lvl2=2
CA49 A:13 n0:60 5.31152e-19 $lvl1=2 $lvl2=1
CA50 A:10 n0:48 5.16763e-19 $lvl1=3 $lvl2=2
CA51 A:19 n0:49 5.13534e-19 $lvl1=1 $lvl2=2
CA52 A:10 Mmp0:d 5.073e-19 $lvl1=3 $lvl2=4
CA53 A:17 n0:47 5.03572e-19 $lvl1=1 $lvl2=2
CA54 A:14 n0:61 4.98098e-19 $lvl1=2 $lvl2=1
CA55 A:13 n0:61 4.95947e-19 $lvl1=2 $lvl2=1
CA56 A:18 n0:32 4.7719e-19 $lvl1=1 $lvl2=3
CA57 A:15 n0:42 4.48067e-19 $lvl1=2 $lvl2=3
CA58 A:18 n0:56 4.28637e-19 $lvl1=1 $lvl2=2
CA59 A:10 n0:50 4.25688e-19 $lvl1=3 $lvl2=2
CA60 A:19 n0:50 4.23246e-19 $lvl1=1 $lvl2=2
CA61 A:14 n0:60 4.11247e-19 $lvl1=2 $lvl2=1
CA62 A:13 n0:49 4.089e-19 $lvl1=2 $lvl2=2
CA63 A:8 n0:55 4.05911e-19 $lvl1=3 $lvl2=2
CA64 A:18 n0:49 3.82474e-19 $lvl1=1 $lvl2=2
CA65 A:14 n0:32 3.74653e-19 $lvl1=2 $lvl2=3
CA66 A:16 n0:44 2.9046e-19 $lvl1=2 $lvl2=2
CA67 A:10 n0:43 2.87536e-19 $lvl1=3 $lvl2=3
CA68 A:19 n0:58 2.72114e-19 $lvl1=1 $lvl2=1
CA69 A:14 n0:57 2.38478e-19 $lvl1=2 $lvl2=2
CA70 A:8 n0:60 2.31108e-19 $lvl1=3 $lvl2=1
CA71 A:17 n0:58 1.88781e-17 $lvl1=1 $lvl2=1
CA72 A:18 n0:61 7.10215e-18 $lvl1=1 $lvl2=1
CA73 A:10 n0:49 1.17916e-17 $lvl1=3 $lvl2=2
CA74 A:16 n0:49 8.27052e-18 $lvl1=2 $lvl2=2
CA75 A:16 n0:57 8.91297e-18 $lvl1=2 $lvl2=2
CA76 A:12 n0:49 1.30268e-16 $lvl1=3 $lvl2=2
CA77 A:10 n0:57 1.07419e-17 $lvl1=3 $lvl2=2
CA78 A:13 n0:55 2.67198e-17 $lvl1=2 $lvl2=2
CA79 A:18 n0:60 1.03483e-17 $lvl1=1 $lvl2=1
CA80 A:17 n0:55 1.8283e-17 $lvl1=1 $lvl2=2
CA81 A:8 n0:44 2.5407e-16 $lvl1=3 $lvl2=2
CA82 A:19 n0:61 9.69959e-18 $lvl1=1 $lvl2=1
CA83 A:15 n0:57 1.15914e-17 $lvl1=2 $lvl2=2
CA84 A:13 n0:32 1.29538e-17 $lvl1=2 $lvl2=3
CA85 A:17 n0:60 2.32555e-17 $lvl1=1 $lvl2=1
CA86 A:10 VSS!:17 6.05651e-18 $lvl1=3 $lvl2=2
CA87 A:19 VSS!:17 4.53819e-18 $lvl1=1 $lvl2=2
CA88 A:13 VSS!:14 2.36777e-18 $lvl1=2 $lvl2=2
CA89 A:19 VSS!:19 2.05195e-18 $lvl1=1 $lvl2=1
CA90 A:18 VSS!:17 1.59674e-18 $lvl1=1 $lvl2=2
CA91 A:17 VSS!:19 1.54134e-18 $lvl1=1 $lvl2=1
CA92 A:14 VSS!:17 1.53783e-18 $lvl1=2 $lvl2=2
CA93 A:19 VSS!:14 1.45094e-18 $lvl1=1 $lvl2=2
CA94 A:18 VSS!:14 1.13418e-18 $lvl1=1 $lvl2=2
CA95 A:18 VSS!:19 1.07207e-18 $lvl1=1 $lvl2=1
CA96 A:19 VSS!:20 7.95611e-19 $lvl1=1 $lvl2=1
CA97 A:10 Mmn1:d 7.06659e-19 $lvl1=3 $lvl2=4
CA98 A:12 VSS!:9 7.46029e-18 $lvl1=3 $lvl2=2
CA99 A:15 VSS!:17 8.37606e-18 $lvl1=2 $lvl2=2
CA100 A:13 VSS!:17 1.34502e-17 $lvl1=2 $lvl2=2
CA101 A:12 VSS!:17 1.27832e-16 $lvl1=3 $lvl2=2
CA102 A:17 VDD!:12 4.50747e-18 $lvl1=1 $lvl2=2
CA103 A:10 VDD! 4.50179e-18 $lvl1=3 $lvl2=1
CA104 A:19 VDD! 3.94369e-18 $lvl1=1 $lvl2=1
CA105 A:18 VDD! 3.87405e-18 $lvl1=1 $lvl2=1
CA106 A:17 VDD!:19 2.21966e-18 $lvl1=1 $lvl2=1
CA107 A:16 VDD! 2.06415e-18 $lvl1=2 $lvl2=1
CA108 A:8 VDD!:5 9.02444e-19 $lvl1=3 $lvl2=2
CA109 A:17 VDD!:20 6.16824e-19 $lvl1=1 $lvl2=1
CA110 A:8 VDD!:4 8.58649e-18 $lvl1=3 $lvl2=2
CA111 A:17 VDD! 1.06579e-17 $lvl1=1 $lvl2=1
CA112 A:8 VDD!:1 2.51374e-16 $lvl1=3 $lvl2=2
CA113 A:17 VDD!:1 1.28232e-17 $lvl1=1 $lvl2=2
CA114 A:17 Y:5 6.41989e-18 $lvl1=1 $lvl2=2
CA115 A:17 Y:28 5.90693e-18 $lvl1=1 $lvl2=1
CA116 A:19 Y:9 5.71767e-18 $lvl1=1 $lvl2=2
CA117 A:18 Y:23 5.61962e-18 $lvl1=1 $lvl2=1
CA118 A:18 Y 5.14438e-18 $lvl1=1 $lvl2=1
CA119 A:19 Y:23 4.69609e-18 $lvl1=1 $lvl2=1
CA120 A:17 Y:23 3.21945e-18 $lvl1=1 $lvl2=1
CA121 A:14 Y:9 2.79276e-18 $lvl1=2 $lvl2=2
CA122 A:18 Y:24 2.69784e-18 $lvl1=1 $lvl2=1
CA123 A:19 Y 2.2989e-18 $lvl1=1 $lvl2=1
CA124 A:18 Y:9 1.48748e-18 $lvl1=1 $lvl2=2
CA125 A:17 Y:24 9.86634e-19 $lvl1=1 $lvl2=1
CA126 A:18 Y:27 9.8481e-19 $lvl1=1 $lvl2=1
CA127 A:10 Y:9 6.94646e-19 $lvl1=3 $lvl2=2
CA128 A:13 Y:23 6.80502e-19 $lvl1=2 $lvl2=1
CA129 A:8 Y:4 6.74105e-19 $lvl1=3 $lvl2=2
CA130 A:15 Y:9 5.74195e-19 $lvl1=2 $lvl2=2
CA131 A:13 Y 4.67215e-19 $lvl1=2 $lvl2=1
CA132 A:12 Y:9 4.22191e-19 $lvl1=3 $lvl2=2
CA133 A:17 Y:11 4.14138e-19 $lvl1=1 $lvl2=2
CA134 A:19 Y:24 1.03702e-17 $lvl1=1 $lvl2=1
CA135 A:17 Y 1.51538e-17 $lvl1=1 $lvl2=1
CA136 A:17 Y:27 1.00372e-17 $lvl1=1 $lvl2=1
CA137 A:13 Y:9 1.30315e-17 $lvl1=2 $lvl2=2
CA138 A:17 Y:4 7.16344e-18 $lvl1=1 $lvl2=2
ReA1 A:17 A 0.310096 $metal1  $L=0.645 $W=0.260000 $SI_W=0.26 $TYPE=10 $DIR=1 $LLX=0.790000 $LLY=1.760000 $URX=1.050000 $URY=2.405000 $lvl=1
ReA2 A A:18 0.158654 $metal1  $L=0.33 $W=0.260000 $SI_W=0.26 $TYPE=10 $DIR=1 $LLX=0.790000 $LLY=1.430000 $URX=1.050000 $URY=1.760000 $lvl=1
ReA3 A:18 A:19 0.127404 $metal1  $L=0.265 $W=0.260000 $SI_W=0.26 $TYPE=10 $DIR=1 $LLX=0.790000 $LLY=1.165000 $URX=1.050000 $URY=1.430000 $lvl=1
RfA4 A:13 A:14 12.423529 $li  $L=0.165 $W=0.170000 $SI_W=0.17 $TYPE=10 $DIR=0 $LLX=0.920000 $LLY=1.345000 $URX=1.085000 $URY=1.515000 $lvl=2
RfA5 A:14 A:15 38.023529 $li  $L=0.505 $W=0.170000 $SI_W=0.17 $TYPE=10 $DIR=0 $LLX=0.415000 $LLY=1.345000 $URX=0.920000 $URY=1.515000 $lvl=2
RfA6 A:15 A:16 13.929413 $li  $L=0.185 $W=0.170000 $SI_W=0.17 $TYPE=10 $DIR=0 $LLX=0.230000 $LLY=1.345000 $URX=0.415000 $URY=1.515000 $lvl=2
RgA7 A:8 Mmp0:g 282.773346 $poly  $L=0.88 $W=0.150000 $SI_W=0.15 $TYPE=10 $DIR=1 $LLX=0.400000 $LLY=3.015000 $URX=0.550000 $URY=3.895000 $lvl=3
RgA8 Mmp0:g A:9 456.337952 $poly  $L=1.42 $W=0.150000 $SI_W=0.15 $TYPE=10 $DIR=1 $LLX=0.400000 $LLY=1.594500 $URX=0.550000 $URY=3.014500 $lvl=3
RgA9 A:9 A:10 38.857975 $poly  $L=0.1645 $W=0.270000 $SI_W=0.27 $TYPE=10 $DIR=1 $LLX=0.280000 $LLY=1.430000 $URX=0.550000 $URY=1.594500 $lvl=3
RgA10 A:10 A:11 29.410927 $poly  $L=0.1645 $W=0.270000 $SI_W=0.27 $TYPE=10 $DIR=1 $LLX=0.280000 $LLY=1.265500 $URX=0.550000 $URY=1.430000 $lvl=3
RgA11 A:11 Mmn0:g 157.497955 $poly  $L=0.49 $W=0.150000 $SI_W=0.15 $TYPE=10 $DIR=1 $LLX=0.400000 $LLY=0.775000 $URX=0.550000 $URY=1.265000 $lvl=3
RgA12 Mmn0:g A:12 170.306671 $poly  $L=0.53 $W=0.150000 $SI_W=0.15 $TYPE=10 $DIR=1 $LLX=0.400000 $LLY=0.245000 $URX=0.550000 $URY=0.775000 $lvl=3
RjA13 A:14 A:18 152.000000 $mcon  $L=0.17 $W=0.17 $A=0.0289 $VC=0 $SAVL=0 $SAVC=0 $SI_A=0.0289 $COVER_DIR=0 $LLX=0.000000 $LLY=0.000000 $URX=0.170000 $URY=0.170000 $lvl=6
RiA14 A:10 A:15 15.000000 $licon  $L=0.17 $W=0.17 $A=0.0289 $VC=0 $SAVL=0 $SAVC=0 $SI_A=0.0289 $COVER_DIR=0 $LLX=0.000000 $LLY=0.000000 $URX=0.170000 $URY=0.170000 $lvl=7
*
*|NET n0 4.62325e-15
*|I (Mmp1:g Mmp1 g X 0 0.9050 3.0150) // $llx=0.9050 $lly=3.0150 $urx=0.9050 $ury=3.0150 $lvl=3
*|I (Mmp1@1:g Mmp1@1 g X 0 1.3350 3.0150) // $llx=1.3350 $lly=3.0150 $urx=1.3350 $ury=3.0150 $lvl=3
*|I (Mmp1@2:g Mmp1@2 g X 0 1.7650 3.0150) // $llx=1.7650 $lly=3.0150 $urx=1.7650 $ury=3.0150 $lvl=3
*|I (Mmp1@3:g Mmp1@3 g X 0 2.1950 3.0150) // $llx=2.1950 $lly=3.0150 $urx=2.1950 $ury=3.0150 $lvl=3
*|I (Mmp0:d Mmp0 d X 0 0.3995 3.0150) // $llx=0.3995 $lly=3.0150 $urx=0.3995 $ury=3.0150 $lvl=4
*|I (Mmn1:g Mmn1 g X 0 0.9050 0.7750) // $llx=0.9050 $lly=0.7750 $urx=0.9050 $ury=0.7750 $lvl=3
*|I (Mmn1@1:g Mmn1@1 g X 0 1.3350 0.7750) // $llx=1.3350 $lly=0.7750 $urx=1.3350 $ury=0.7750 $lvl=3
*|I (Mmn1@2:g Mmn1@2 g X 0 1.7650 0.7750) // $llx=1.7650 $lly=0.7750 $urx=1.7650 $ury=0.7750 $lvl=3
*|I (Mmn1@3:g Mmn1@3 g X 0 2.1950 0.7750) // $llx=2.1950 $lly=0.7750 $urx=2.1950 $ury=0.7750 $lvl=3
*|I (Mmn0:s Mmn0 s X 0 0.3995 0.7750) // $llx=0.3995 $lly=0.7750 $urx=0.3995 $ury=0.7750 $lvl=4
*|S (n0 0.9050 0.7750) // $llx=0.9050 $lly=0.7750 $urx=0.9050 $ury=0.7750 $lvl=3
*|S (n0:29 2.1950 3.8950) // $llx=2.1950 $lly=3.8950 $urx=2.1950 $ury=3.8950 $lvl=3
*|S (n0:30 2.1950 1.7750) // $llx=2.1950 $lly=1.7750 $urx=2.1950 $ury=1.7750 $lvl=3
*|S (n0:31 1.7650 1.7750) // $llx=1.7650 $lly=1.7750 $urx=1.7650 $ury=1.7750 $lvl=3
*|S (n0:32 1.5500 1.7750) // $llx=1.5500 $lly=1.7750 $urx=1.5500 $ury=1.7750 $lvl=3
*|S (n0:33 1.3350 1.7750) // $llx=1.3350 $lly=1.7750 $urx=1.3350 $ury=1.7750 $lvl=3
*|S (n0:34 0.9050 1.7750) // $llx=0.9050 $lly=1.7750 $urx=0.9050 $ury=1.7750 $lvl=3
*|S (n0:35 0.7700 1.7750) // $llx=0.7700 $lly=1.7750 $urx=0.7700 $ury=1.7750 $lvl=3
*|S (n0:36 2.1950 0.2450) // $llx=2.1950 $lly=0.2450 $urx=2.1950 $ury=0.2450 $lvl=3
*|S (n0:37 2.3295 1.7750) // $llx=2.3295 $lly=1.7750 $urx=2.3295 $ury=1.7750 $lvl=3
*|S (n0:38 1.7650 0.2450) // $llx=1.7650 $lly=0.2450 $urx=1.7650 $ury=0.2450 $lvl=3
*|S (n0:39 1.7650 3.8950) // $llx=1.7650 $lly=3.8950 $urx=1.7650 $ury=3.8950 $lvl=3
*|S (n0:40 1.3350 0.2450) // $llx=1.3350 $lly=0.2450 $urx=1.3350 $ury=0.2450 $lvl=3
*|S (n0:41 1.3350 3.8950) // $llx=1.3350 $lly=3.8950 $urx=1.3350 $ury=3.8950 $lvl=3
*|S (n0:42 0.9050 0.2450) // $llx=0.9050 $lly=0.2450 $urx=0.9050 $ury=0.2450 $lvl=3
*|S (n0:43 0.9050 3.8950) // $llx=0.9050 $lly=3.8950 $urx=0.9050 $ury=3.8950 $lvl=3
*|S (n0:44 0.2600 3.7450) // $llx=0.2600 $lly=3.7450 $urx=0.2600 $ury=3.7450 $lvl=2
*|S (n0:46 0.2600 3.0150) // $llx=0.2600 $lly=3.0150 $urx=0.2600 $ury=3.0150 $lvl=2
*|S (n0:47 0.2600 2.5850) // $llx=0.2600 $lly=2.5850 $urx=0.2600 $ury=2.5850 $lvl=2
*|S (n0:48 0.2600 2.2850) // $llx=0.2600 $lly=2.2850 $urx=0.2600 $ury=2.2850 $lvl=2
*|S (n0:49 0.2600 1.1550) // $llx=0.2600 $lly=1.1550 $urx=0.2600 $ury=1.1550 $lvl=2
*|S (n0:50 0.2600 0.9900) // $llx=0.2600 $lly=0.9900 $urx=0.2600 $ury=0.9900 $lvl=2
*|S (n0:52 0.2600 0.7750) // $llx=0.2600 $lly=0.7750 $urx=0.2600 $ury=0.7750 $lvl=2
*|S (n0:53 0.2600 0.3950) // $llx=0.2600 $lly=0.3950 $urx=0.2600 $ury=0.3950 $lvl=2
*|S (n0:54 2.3600 1.7750) // $llx=2.3600 $lly=1.7750 $urx=2.3600 $ury=1.7750 $lvl=2
*|S (n0:55 1.5500 1.7750) // $llx=1.5500 $lly=1.7750 $urx=1.5500 $ury=1.7750 $lvl=2
*|S (n0:56 0.2600 1.7750) // $llx=0.2600 $lly=1.7750 $urx=0.2600 $ury=1.7750 $lvl=2
*|S (n0:57 0.0950 1.7750) // $llx=0.0950 $lly=1.7750 $urx=0.0950 $ury=1.7750 $lvl=2
*|S (n0:58 0.2600 2.7300) // $llx=0.2600 $lly=2.7300 $urx=0.2600 $ury=2.7300 $lvl=1
*|S (n0:59 0.2600 2.5850) // $llx=0.2600 $lly=2.5850 $urx=0.2600 $ury=2.5850 $lvl=1
*|S (n0:60 0.2600 1.7750) // $llx=0.2600 $lly=1.7750 $urx=0.2600 $ury=1.7750 $lvl=1
*|S (n0:61 0.2600 0.9900) // $llx=0.2600 $lly=0.9900 $urx=0.2600 $ury=0.9900 $lvl=1
*|S (n0:62 0.2600 0.8450) // $llx=0.2600 $lly=0.8450 $urx=0.2600 $ury=0.8450 $lvl=1
CE1 Mmn0:s VSS! 6.41446e-19 $lvl=4
CE2 Mmp0:d VSS! 1.2046e-18 $lvl=4
CE3 n0:61 VSS! 6.1578e-18 $lvl=1
CE4 n0:60 VSS! 3.93541e-18 $lvl=1
CE5 n0:58 VSS! 6.03559e-18 $lvl=1
CE6 n0:29 VSS! 2.12025e-18 $lvl=3
CE7 n0:39 VSS! 1.96394e-18 $lvl=3
CE8 n0:41 VSS! 1.66319e-18 $lvl=3
CE9 n0:43 VSS! 8.7916e-19 $lvl=3
CE10 n0:42 VSS! 7.86138e-19 $lvl=3
CE11 n0:40 VSS! 1.12365e-18 $lvl=3
CE12 n0:38 VSS! 1.16106e-18 $lvl=3
CE13 n0:36 VSS! 1.44387e-18 $lvl=3
CE14 n0:55 VSS! 6.71413e-18 $lvl=2
CE15 n0:57 VSS! 5.63392e-18 $lvl=2
CE16 n0:49 VSS! 1.60373e-17 $lvl=2
CE17 n0:53 VSS! 1.20866e-18 $lvl=2
CE18 n0:44 VSS! 6.08835e-18 $lvl=2
CE19 n0:48 VSS! 1.55008e-18 $lvl=2
CE20 n0:50 VSS! 2.78801e-18 $lvl=2
CE21 n0:56 VSS! 1.66741e-18 $lvl=2
CE22 n0:47 VSS! 1.24001e-18 $lvl=2
CE23 n0:32 VSS! 4.88893e-17 $lvl=3
CE24 n0:42 VSS!:9 8.68168e-18 $lvl1=3 $lvl2=2
CE25 n0:38 VSS!:9 8.43025e-18 $lvl1=3 $lvl2=2
CE26 n0:61 VSS!:20 7.91049e-18 $lvl1=1 $lvl2=1
CE27 n0:53 VSS!:9 7.78856e-18 $lvl1=2 $lvl2=2
CE28 n0:40 VSS!:9 7.55014e-18 $lvl1=3 $lvl2=2
CE29 n0:61 VSS!:17 7.44249e-18 $lvl1=1 $lvl2=2
CE30 n0:50 VSS!:17 6.73396e-18 $lvl1=2 $lvl2=2
CE31 n0:53 VSS!:17 6.38829e-18 $lvl1=2 $lvl2=2
CE32 n0:53 VSS!:10 5.92594e-18 $lvl1=2 $lvl2=2
CE33 n0:36 VSS!:4 5.67449e-18 $lvl1=3 $lvl2=2
CE34 n0:55 VSS!:1 5.49994e-18 $lvl1=2 $lvl2=2
CE35 n0:49 VSS!:10 5.4165e-18 $lvl1=2 $lvl2=2
CE36 n0:32 VSS!:14 5.2806e-18 $lvl1=3 $lvl2=2
CE37 n0:55 VSS!:14 5.15842e-18 $lvl1=2 $lvl2=2
CE38 n0:32 VSS!:1 4.64824e-18 $lvl1=3 $lvl2=2
CE39 n0:49 VSS!:9 4.5861e-18 $lvl1=2 $lvl2=2
CE40 n0:53 VSS!:20 3.34239e-18 $lvl1=2 $lvl2=1
CE41 n0:49 VSS!:20 3.25906e-18 $lvl1=2 $lvl2=1
CE42 Mmn0:s VSS!:9 2.79663e-18 $lvl1=4 $lvl2=2
CE43 n0:49 VSS!:7 2.49254e-18 $lvl1=2 $lvl2=4
CE44 n0:36 VSS!:9 2.17261e-18 $lvl1=3 $lvl2=2
CE45 n0:60 VSS!:19 2.01327e-18 $lvl1=1 $lvl2=1
CE46 n0:53 VSS!:19 2.01186e-18 $lvl1=2 $lvl2=1
CE47 n0:53 VSS!:6 1.59608e-18 $lvl1=2 $lvl2=2
CE48 n0:60 VSS!:20 1.52919e-18 $lvl1=1 $lvl2=1
CE49 n0:49 VSS!:19 1.42355e-18 $lvl1=2 $lvl2=1
CE50 n0:61 VSS!:10 1.38703e-18 $lvl1=1 $lvl2=2
CE51 n0:58 VSS!:19 1.22007e-18 $lvl1=1 $lvl2=1
CE52 n0:32 VSS!:17 1.21422e-18 $lvl1=3 $lvl2=2
CE53 Mmn0:s VSS!:10 1.1158e-18 $lvl1=4 $lvl2=2
CE54 n0:32 Mmn1@1:d 1.04264e-18 $lvl1=3 $lvl2=4
CE55 Mmn0:s VSS!:17 9.27507e-19 $lvl1=4 $lvl2=2
CE56 n0:49 VSS!:6 8.49766e-19 $lvl1=2 $lvl2=2
CE57 n0:55 VSS!:17 8.42777e-19 $lvl1=2 $lvl2=2
CE58 n0:42 VSS!:14 8.32581e-19 $lvl1=3 $lvl2=2
CE59 n0:61 VSS!:9 7.56856e-19 $lvl1=1 $lvl2=2
CE60 n0:49 Mmn1:d 7.19331e-19 $lvl1=2 $lvl2=4
CE61 n0:40 VSS!:17 7.18618e-19 $lvl1=3 $lvl2=2
CE62 n0:32 Mmn1@3:d 6.98933e-19 $lvl1=3 $lvl2=4
CE63 n0:36 VSS!:14 6.80032e-19 $lvl1=3 $lvl2=2
CE64 n0:53 VSS!:7 6.40401e-19 $lvl1=2 $lvl2=4
CE65 n0:60 VSS!:17 6.37879e-19 $lvl1=1 $lvl2=2
CE66 n0:55 VSS!:18 6.26674e-19 $lvl1=2 $lvl2=1
CE67 n0:38 VSS!:4 5.65027e-19 $lvl1=3 $lvl2=2
CE68 n0:61 VSS!:6 5.51095e-19 $lvl1=1 $lvl2=2
CE69 n0:58 VSS!:20 5.40793e-19 $lvl1=1 $lvl2=1
CE70 n0:55 VSS!:19 5.21062e-19 $lvl1=2 $lvl2=1
CE71 n0:38 VSS!:1 4.93484e-19 $lvl1=3 $lvl2=2
CE72 n0:32 Mmn1:d 4.73053e-19 $lvl1=3 $lvl2=4
CE73 n0:38 VSS!:14 1.30444e-16 $lvl1=3 $lvl2=2
CE74 n0:40 VSS!:14 1.25301e-16 $lvl1=3 $lvl2=2
CE75 n0:36 VSS!:1 1.31121e-16 $lvl1=3 $lvl2=2
CE76 n0:49 VSS!:17 4.38386e-17 $lvl1=2 $lvl2=2
CE77 n0:61 VSS!:19 9.43986e-18 $lvl1=1 $lvl2=1
CE78 n0:42 VSS!:17 1.31582e-16 $lvl1=3 $lvl2=2
ReE99 n0:58 n0:59 0.078804 $metal1  $L=0.145 $W=0.230000 $SI_W=0.23 $TYPE=10 $DIR=1 $LLX=0.145000 $LLY=2.585000 $URX=0.375000 $URY=2.730000 $lvl=1
ReE100 n0:59 n0:60 0.440217 $metal1  $L=0.81 $W=0.230000 $SI_W=0.23 $TYPE=10 $DIR=1 $LLX=0.145000 $LLY=1.775000 $URX=0.375000 $URY=2.585000 $lvl=1
ReE101 n0:60 n0:61 0.426630 $metal1  $L=0.785 $W=0.230000 $SI_W=0.23 $TYPE=10 $DIR=1 $LLX=0.145000 $LLY=0.990000 $URX=0.375000 $URY=1.775000 $lvl=1
ReE102 n0:61 n0:62 0.078804 $metal1  $L=0.145 $W=0.230000 $SI_W=0.23 $TYPE=10 $DIR=1 $LLX=0.145000 $LLY=0.845000 $URX=0.375000 $URY=0.990000 $lvl=1
RfE103 n0:44 n0:46 54.964703 $li  $L=0.73 $W=0.170000 $SI_W=0.17 $TYPE=10 $DIR=1 $LLX=0.175000 $LLY=3.015000 $URX=0.345000 $URY=3.745000 $lvl=2
RfE104 n0:46 n0:47 32.376472 $li  $L=0.43 $W=0.170000 $SI_W=0.17 $TYPE=10 $DIR=1 $LLX=0.175000 $LLY=2.585000 $URX=0.345000 $URY=3.015000 $lvl=2
RfE105 n0:47 n0:48 22.588236 $li  $L=0.3 $W=0.170000 $SI_W=0.17 $TYPE=10 $DIR=1 $LLX=0.175000 $LLY=2.285000 $URX=0.345000 $URY=2.585000 $lvl=2
RfE106 n0:49 n0:50 12.423529 $li  $L=0.165 $W=0.170000 $SI_W=0.17 $TYPE=10 $DIR=1 $LLX=0.175000 $LLY=0.990000 $URX=0.345000 $URY=1.155000 $lvl=2
RfE107 n0:50 n0:52 16.188236 $li  $L=0.215 $W=0.170000 $SI_W=0.17 $TYPE=10 $DIR=1 $LLX=0.175000 $LLY=0.775000 $URX=0.345000 $URY=0.990000 $lvl=2
RfE108 n0:52 n0:53 28.611765 $li  $L=0.38 $W=0.170000 $SI_W=0.17 $TYPE=10 $DIR=1 $LLX=0.175000 $LLY=0.395000 $URX=0.345000 $URY=0.775000 $lvl=2
RfE109 n0:54 n0:55 60.988232 $li  $L=0.81 $W=0.170000 $SI_W=0.17 $TYPE=10 $DIR=0 $LLX=1.550000 $LLY=1.690000 $URX=2.360000 $URY=1.860000 $lvl=2
RfE110 n0:55 n0:56 97.129410 $li  $L=1.29 $W=0.170000 $SI_W=0.17 $TYPE=10 $DIR=0 $LLX=0.260000 $LLY=1.690000 $URX=1.550000 $URY=1.860000 $lvl=2
RfE111 n0:56 n0:57 12.423529 $li  $L=0.165 $W=0.170000 $SI_W=0.17 $TYPE=10 $DIR=0 $LLX=0.095000 $LLY=1.690000 $URX=0.260000 $URY=1.860000 $lvl=2
RgE112 n0:29 Mmp1@3:g 282.773346 $poly  $L=0.88 $W=0.150000 $SI_W=0.15 $TYPE=10 $DIR=1 $LLX=2.120000 $LLY=3.015000 $URX=2.270000 $URY=3.895000 $lvl=3
RgE113 Mmp1@3:g n0:30 369.496826 $poly  $L=1.23975 $W=0.150000 $SI_W=0.15 $TYPE=10 $DIR=1 $LLX=2.120000 $LLY=1.775000 $URX=2.270000 $URY=3.015000 $lvl=3
RgE114 n0:30 n0:31 62.806061 $poly  $L=0.43 $W=0.330000 $SI_W=0.33 $TYPE=10 $DIR=0 $LLX=1.765000 $LLY=1.610000 $URX=2.195000 $URY=1.940000 $lvl=3
RgE115 n0:31 n0:32 31.439547 $poly  $L=0.21525 $W=0.330000 $SI_W=0.33 $TYPE=10 $DIR=0 $LLX=1.550000 $LLY=1.610000 $URX=1.765000 $URY=1.940000 $lvl=3
RgE116 n0:32 n0:33 31.366514 $poly  $L=0.21475 $W=0.330000 $SI_W=0.33 $TYPE=10 $DIR=0 $LLX=1.335000 $LLY=1.610000 $URX=1.550000 $URY=1.940000 $lvl=3
RgE117 n0:33 n0:34 62.806061 $poly  $L=0.43 $W=0.330000 $SI_W=0.33 $TYPE=10 $DIR=0 $LLX=0.905000 $LLY=1.610000 $URX=1.335000 $URY=1.940000 $lvl=3
RgE118 n0:34 n0:35 19.754698 $poly  $L=0.13525 $W=0.330000 $SI_W=0.33 $TYPE=10 $DIR=0 $LLX=0.770000 $LLY=1.610000 $URX=0.905000 $URY=1.940000 $lvl=3
RgE119 n0:30 Mmn1@3:g 292.449860 $poly  $L=1.00025 $W=0.150000 $SI_W=0.15 $TYPE=10 $DIR=1 $LLX=2.120000 $LLY=0.775000 $URX=2.270000 $URY=1.775000 $lvl=3
RgE120 Mmn1@3:g n0:36 170.306671 $poly  $L=0.53 $W=0.150000 $SI_W=0.15 $TYPE=10 $DIR=1 $LLX=2.120000 $LLY=0.245000 $URX=2.270000 $URY=0.775000 $lvl=3
RgE121 n0:30 n0:37 19.608637 $poly  $L=0.13425 $W=0.330000 $SI_W=0.33 $TYPE=10 $DIR=0 $LLX=2.195000 $LLY=1.610000 $URX=2.329000 $URY=1.940000 $lvl=3
RgE122 n0:31 Mmn1@2:g 292.449860 $poly  $L=1.00025 $W=0.150000 $SI_W=0.15 $TYPE=10 $DIR=1 $LLX=1.690000 $LLY=0.775000 $URX=1.840000 $URY=1.775000 $lvl=3
RgE123 Mmn1@2:g n0:38 170.306671 $poly  $L=0.53 $W=0.150000 $SI_W=0.15 $TYPE=10 $DIR=1 $LLX=1.690000 $LLY=0.245000 $URX=1.840000 $URY=0.775000 $lvl=3
RgE124 n0:31 Mmp1@2:g 369.496826 $poly  $L=1.23975 $W=0.150000 $SI_W=0.15 $TYPE=10 $DIR=1 $LLX=1.690000 $LLY=1.775000 $URX=1.840000 $URY=3.015000 $lvl=3
RgE125 Mmp1@2:g n0:39 282.773346 $poly  $L=0.88 $W=0.150000 $SI_W=0.15 $TYPE=10 $DIR=1 $LLX=1.690000 $LLY=3.015000 $URX=1.840000 $URY=3.895000 $lvl=3
RgE126 n0:33 Mmn1@1:g 292.449860 $poly  $L=1.00025 $W=0.150000 $SI_W=0.15 $TYPE=10 $DIR=1 $LLX=1.260000 $LLY=0.775000 $URX=1.410000 $URY=1.775000 $lvl=3
RgE127 Mmn1@1:g n0:40 170.306671 $poly  $L=0.53 $W=0.150000 $SI_W=0.15 $TYPE=10 $DIR=1 $LLX=1.260000 $LLY=0.245000 $URX=1.410000 $URY=0.775000 $lvl=3
RgE128 n0:33 Mmp1@1:g 369.496826 $poly  $L=1.23975 $W=0.150000 $SI_W=0.15 $TYPE=10 $DIR=1 $LLX=1.260000 $LLY=1.775000 $URX=1.410000 $URY=3.015000 $lvl=3
RgE129 Mmp1@1:g n0:41 282.773346 $poly  $L=0.88 $W=0.150000 $SI_W=0.15 $TYPE=10 $DIR=1 $LLX=1.260000 $LLY=3.015000 $URX=1.410000 $URY=3.895000 $lvl=3
RgE130 n0:34 n0 292.449860 $poly  $L=1.00025 $W=0.150000 $SI_W=0.15 $TYPE=10 $DIR=1 $LLX=0.830000 $LLY=0.775000 $URX=0.980000 $URY=1.775000 $lvl=3
RgE131 n0 n0:42 170.306671 $poly  $L=0.53 $W=0.150000 $SI_W=0.15 $TYPE=10 $DIR=1 $LLX=0.830000 $LLY=0.245000 $URX=0.980000 $URY=0.775000 $lvl=3
RgE132 n0:34 Mmp1:g 369.496826 $poly  $L=1.23975 $W=0.150000 $SI_W=0.15 $TYPE=10 $DIR=1 $LLX=0.830000 $LLY=1.775000 $URX=0.980000 $URY=3.015000 $lvl=3
RgE133 Mmp1:g n0:43 282.773346 $poly  $L=0.88 $W=0.150000 $SI_W=0.15 $TYPE=10 $DIR=1 $LLX=0.830000 $LLY=3.015000 $URX=0.980000 $URY=3.895000 $lvl=3
RhE134 Mmn0:s n0:52 7.500000 $licon_diff  $A=0.0578 $VC=0 $SAVL=0 $SAVC=0 $SI_A=0.0578 $COVER_DIR=0 $LLX=0.000000 $LLY=0.000000 $URX=-0.057800 $URY=-2.000000 $lvl=5
Rh_2_E135 Mmp0:d n0:46 3.750000 $licon_diff  $A=0.1156 $VC=0 $SAVL=0 $SAVC=0 $SI_A=0.1156 $COVER_DIR=0 $LLX=0.000000 $LLY=0.000000 $URX=-0.115600 $URY=-4.000000 $lvl=5
RjE136 n0:47 n0:59 152.000000 $mcon  $L=0.17 $W=0.17 $A=0.0289 $VC=0 $SAVL=0 $SAVC=0 $SI_A=0.0289 $COVER_DIR=0 $LLX=0.000000 $LLY=0.000000 $URX=0.170000 $URY=0.170000 $lvl=6
RjE137 n0:56 n0:60 152.000000 $mcon  $L=0.17 $W=0.17 $A=0.0289 $VC=0 $SAVL=0 $SAVC=0 $SI_A=0.0289 $COVER_DIR=0 $LLX=0.000000 $LLY=0.000000 $URX=0.170000 $URY=0.170000 $lvl=6
RjE138 n0:50 n0:61 152.000000 $mcon  $L=0.17 $W=0.17 $A=0.0289 $VC=0 $SAVL=0 $SAVC=0 $SI_A=0.0289 $COVER_DIR=0 $LLX=0.000000 $LLY=0.000000 $URX=0.170000 $URY=0.170000 $lvl=6
RiE139 n0:32 n0:55 3.750000 $licon  $A=0.1156 $VC=0 $SAVL=0 $SAVC=0 $SI_A=0.1156 $COVER_DIR=0 $LLX=0.000000 $LLY=0.000000 $URX=-0.115600 $URY=-4.000000 $lvl=7
RmwE140 Mmn1:g n0 0.001000 $poly $W=1000000 $SI_W=1000000 $TYPE=1 $DIR=0
*
*|NET VSS! 2.01224e-15
*|P (VSS! X 0 1.5250 0.0050) // $llx=1.5250 $lly=0.0050 $urx=1.5250 $ury=0.0050 $lvl=1
*|I (Mmn1:d Mmn1 d X 0 0.8295 0.7750) // $llx=0.8295 $lly=0.7750 $urx=0.8295 $ury=0.7750 $lvl=4
*|I (Mmn1:b Mmn1 b X 0 0.9050 0.7750) // $llx=0.9050 $lly=0.7750 $urx=0.9050 $ury=0.7750 $lvl=8
*|I (Mmn1@1:d Mmn1@1 d X 0 1.4105 0.7750) // $llx=1.4105 $lly=0.7750 $urx=1.4105 $ury=0.7750 $lvl=4
*|I (Mmn1@1:b Mmn1@1 b X 0 1.3350 0.7750) // $llx=1.3350 $lly=0.7750 $urx=1.3350 $ury=0.7750 $lvl=8
*|I (Mmn1@2:d Mmn1@2 d X 0 1.6895 0.7750) // $llx=1.6895 $lly=0.7750 $urx=1.6895 $ury=0.7750 $lvl=4
*|I (Mmn1@2:b Mmn1@2 b X 0 1.7650 0.7750) // $llx=1.7650 $lly=0.7750 $urx=1.7650 $ury=0.7750 $lvl=8
*|I (Mmn1@3:d Mmn1@3 d X 0 2.2705 0.7750) // $llx=2.2705 $lly=0.7750 $urx=2.2705 $ury=0.7750 $lvl=4
*|I (Mmn1@3:b Mmn1@3 b X 0 2.1950 0.7750) // $llx=2.1950 $lly=0.7750 $urx=2.1950 $ury=0.7750 $lvl=8
*|I (Mmn0:d Mmn0 d X 0 0.5505 0.7750) // $llx=0.5505 $lly=0.7750 $urx=0.5505 $ury=0.7750 $lvl=4
*|I (Mmn0:b Mmn0 b X 0 0.4750 0.7750) // $llx=0.4750 $lly=0.7750 $urx=0.4750 $ury=0.7750 $lvl=8
*|S (VSS!:1 2.4100 1.1550) // $llx=2.4100 $lly=1.1550 $urx=2.4100 $ury=1.1550 $lvl=2
*|S (VSS!:3 2.4100 0.7750) // $llx=2.4100 $lly=0.7750 $urx=2.4100 $ury=0.7750 $lvl=2
*|S (VSS!:4 2.4100 0.0000) // $llx=2.4100 $lly=0.0000 $urx=2.4100 $ury=0.0000 $lvl=2
*|S (VSS!:5 1.5500 0.0000) // $llx=1.5500 $lly=0.0000 $urx=1.5500 $ury=0.0000 $lvl=2
*|S (VSS!:6 1.3800 0.0000) // $llx=1.3800 $lly=0.0000 $urx=1.3800 $ury=0.0000 $lvl=2
*|S (VSS!:7 1.3800 0.0000) // $llx=1.3800 $lly=0.0000 $urx=1.3800 $ury=0.0000 $lvl=4
*|S (VSS!:9 0.6900 0.0000) // $llx=0.6900 $lly=0.0000 $urx=0.6900 $ury=0.0000 $lvl=2
*|S (VSS!:10 0.0000 0.0000) // $llx=0.0000 $lly=0.0000 $urx=0.0000 $ury=0.0000 $lvl=2
*|S (VSS!:11 2.7595 0.0000) // $llx=2.7595 $lly=0.0000 $urx=2.7595 $ury=0.0000 $lvl=2
*|S (VSS!:13 1.5500 0.7750) // $llx=1.5500 $lly=0.7750 $urx=1.5500 $ury=0.7750 $lvl=2
*|S (VSS!:14 1.5500 1.1550) // $llx=1.5500 $lly=1.1550 $urx=1.5500 $ury=1.1550 $lvl=2
*|S (VSS!:16 0.6900 0.7750) // $llx=0.6900 $lly=0.7750 $urx=0.6900 $ury=0.7750 $lvl=2
*|S (VSS!:17 0.6900 1.1550) // $llx=0.6900 $lly=1.1550 $urx=0.6900 $ury=1.1550 $lvl=2
*|S (VSS!:18 2.7600 0.0000) // $llx=2.7600 $lly=0.0000 $urx=2.7600 $ury=0.0000 $lvl=1
*|S (VSS!:19 1.3800 0.0000) // $llx=1.3800 $lly=0.0000 $urx=1.3800 $ury=0.0000 $lvl=1
*|S (VSS!:20 0.0000 0.0000) // $llx=0.0000 $lly=0.0000 $urx=0.0000 $ury=0.0000 $lvl=1
ReD73 VSS!:18 VSS! 0.385937 $metal1  $L=1.235 $W=0.400000 $SI_W=0.4 $TYPE=10 $DIR=0 $LLX=1.525000 $LLY=-0.199500 $URX=2.760000 $URY=0.200000 $lvl=1
ReD74 VSS! VSS!:19 0.045313 $metal1  $L=0.145 $W=0.400000 $SI_W=0.4 $TYPE=10 $DIR=0 $LLX=1.380000 $LLY=-0.199500 $URX=1.525000 $URY=0.200000 $lvl=1
ReD75 VSS!:19 VSS!:20 0.431250 $metal1  $L=1.38 $W=0.400000 $SI_W=0.4 $TYPE=10 $DIR=0 $LLX=0.000000 $LLY=-0.199500 $URX=1.380000 $URY=0.200000 $lvl=1
RfD76 VSS!:1 VSS!:3 28.611765 $li  $L=0.38 $W=0.170000 $SI_W=0.17 $TYPE=10 $DIR=1 $LLX=2.325000 $LLY=0.775000 $URX=2.495000 $URY=1.155000 $lvl=2
RfD77 VSS!:3 VSS!:4 55.328377 $li  $L=0.77475 $W=0.170000 $SI_W=0.17 $TYPE=10 $DIR=1 $LLX=2.325000 $LLY=0.000000 $URX=2.495000 $URY=0.775000 $lvl=2
RfD78 VSS!:4 VSS!:5 44.031998 $li  $L=0.86 $W=0.250000 $SI_W=0.25 $TYPE=10 $DIR=0 $LLX=1.550000 $LLY=-0.124500 $URX=2.410000 $URY=0.125000 $lvl=2
RfD79 VSS!:5 VSS!:6 8.716800 $li  $L=0.17025 $W=0.250000 $SI_W=0.25 $TYPE=10 $DIR=0 $LLX=1.380000 $LLY=-0.124500 $URX=1.550000 $URY=0.125000 $lvl=2
RfD80 VSS!:6 VSS!:9 35.315201 $li  $L=0.68975 $W=0.250000 $SI_W=0.25 $TYPE=10 $DIR=0 $LLX=0.690000 $LLY=-0.124500 $URX=1.380000 $URY=0.125000 $lvl=2
RfD81 VSS!:9 VSS!:10 35.340801 $li  $L=0.69025 $W=0.250000 $SI_W=0.25 $TYPE=10 $DIR=0 $LLX=0.000000 $LLY=-0.124500 $URX=0.690000 $URY=0.125000 $lvl=2
RfD82 VSS!:4 VSS!:11 17.881599 $li  $L=0.34925 $W=0.250000 $SI_W=0.25 $TYPE=10 $DIR=0 $LLX=2.410000 $LLY=-0.124500 $URX=2.759000 $URY=0.125000 $lvl=2
RfD83 VSS!:5 VSS!:13 55.328377 $li  $L=0.77475 $W=0.170000 $SI_W=0.17 $TYPE=10 $DIR=1 $LLX=1.465000 $LLY=0.000000 $URX=1.635000 $URY=0.775000 $lvl=2
RfD84 VSS!:13 VSS!:14 28.611765 $li  $L=0.38 $W=0.170000 $SI_W=0.17 $TYPE=10 $DIR=1 $LLX=1.465000 $LLY=0.775000 $URX=1.635000 $URY=1.155000 $lvl=2
RfD85 VSS!:9 VSS!:16 55.328377 $li  $L=0.77475 $W=0.170000 $SI_W=0.17 $TYPE=10 $DIR=1 $LLX=0.605000 $LLY=0.000000 $URX=0.775000 $URY=0.775000 $lvl=2
RfD86 VSS!:16 VSS!:17 28.611765 $li  $L=0.38 $W=0.170000 $SI_W=0.17 $TYPE=10 $DIR=1 $LLX=0.605000 $LLY=0.775000 $URX=0.775000 $URY=1.155000 $lvl=2
RhD87 Mmn1@3:d VSS!:3 7.500000 $licon_diff  $A=0.0578 $VC=0 $SAVL=0 $SAVC=0 $SI_A=0.0578 $COVER_DIR=0 $LLX=0.000000 $LLY=0.000000 $URX=-0.057800 $URY=-2.000000 $lvl=5
RhD88 Mmn1@1:d VSS!:13 7.500000 $licon_diff  $A=0.0578 $VC=0 $SAVL=0 $SAVC=0 $SI_A=0.0578 $COVER_DIR=0 $LLX=0.000000 $LLY=0.000000 $URX=-0.057800 $URY=-2.000000 $lvl=5
RhD89 Mmn1:d VSS!:16 7.500000 $licon_diff  $A=0.0578 $VC=0 $SAVL=0 $SAVC=0 $SI_A=0.0578 $COVER_DIR=0 $LLX=0.000000 $LLY=0.000000 $URX=-0.057800 $URY=-2.000000 $lvl=5
Rh_3_D90 VSS!:7 VSS!:6 3.000000 $licon_diff  $A=0.1445 $VC=0 $SAVL=0 $SAVC=0 $SI_A=0.1445 $COVER_DIR=0 $LLX=0.000000 $LLY=0.000000 $URX=-0.144500 $URY=-5.000000 $lvl=5
RjD91 VSS!:6 VSS!:19 30.400000 $mcon  $A=0.1445 $VC=0 $SAVL=0 $SAVC=0 $SI_A=0.1445 $COVER_DIR=0 $LLX=0.000000 $LLY=0.000000 $URX=-0.144500 $URY=-5.000000 $lvl=6