*
*|DSPF 1.5
*
*|DATE "Wed Jan  8 23:00:26 2025"
*|VENDOR "Cadence Design Systems"
*|PROGRAM "Cadence Quantus Extraction"
*|VERSION "22.1.0-p089 Linux 64 bit - (Thu Jan 19 11:47:08 PST 2023)"
*|DESIGN CLKAND2X2_HS
*|DIVIDER /
*|DELIMITER :
*|DeviceFingerDelim "@"
*|BUSBIT []
*|GLOBAL_TEMPERATURE 25
*|OPERATING_TEMPERATURE 25

** *VIA_COVERAGE_CODES
** *index FF FS FP FU SF SS SP SU PF PS PP PU UF US UP UU X_by_Y
** * "FF" stands for Full landing and Full coverage
** *0 0 0 0 0 0 0 0 0 0 0 0 0 0 0 0 0
** *1 0 0 0 0 0 0 0 0 0 0 0 0 0 0 0 1 1x1
** *2 0 0 0 0 0 0 0 0 0 0 0 0 0 0 1 0 1x1
** *3 0 0 0 0 0 0 0 0 0 0 0 0 0 1 0 0 1x1
** *4 0 0 0 0 0 0 0 0 0 0 0 0 1 0 0 0 1x1
** *5 0 0 0 0 0 0 0 0 0 0 0 1 0 0 0 0 1x1
** *6 0 0 0 0 0 0 0 0 0 0 1 0 0 0 0 0 1x1
** *7 0 0 0 0 0 0 0 0 0 1 0 0 0 0 0 0 1x1
** *8 0 0 0 0 0 0 0 0 1 0 0 0 0 0 0 0 1x1
** *9 0 0 0 0 0 0 0 1 0 0 0 0 0 0 0 0 1x1
** *10 0 0 0 0 0 0 1 0 0 0 0 0 0 0 0 0 1x1
** *11 0 0 0 0 0 1 0 0 0 0 0 0 0 0 0 0 1x1
** *12 0 0 0 0 1 0 0 0 0 0 0 0 0 0 0 0 1x1
** *13 0 0 0 1 0 0 0 0 0 0 0 0 0 0 0 0 1x1
** *14 0 0 1 0 0 0 0 0 0 0 0 0 0 0 0 0 1x1
** *15 0 1 0 0 0 0 0 0 0 0 0 0 0 0 0 0 1x1
** *16 1 0 0 0 0 0 0 0 0 0 0 0 0 0 0 0 1x1

** *RESISTOR_TYPES
** *1 SHORTING_ELEMENT
** *2 PRES_NG
** *3 PRES_PG
** *4 PRES_NF
** *5 PRES_PF
** *6 TCN_NDIFF
** *7 TCN_PDIFF
** *8 TCN_NFIELD
** *9 TCN_PFIELD
** *10 QUALITY_EXTRACTED
** *11 GCNLAND
** *12 TCNLAND
** *13 DUMMY
** *14 RSD
** *15 BRIDGE

** *RESISTOR_CURRENT_DIRECTION
** *0 HORIZONTAL
** *1 VERTICAL
** *2 45 DEGREE

** QRC_TECH_DIR /vols/wfo_devel/projects/reference_SKY130/tech/sky130_release_0.0.4/quantus/extraction/typical 
** HIERARCHICAL_SPLIT_PINS_DELIMITER '%'
** caps2d version: 10
*
.SUBCKT  CLKAND2X2_HS A B Y
*
*Net Section
*
*|GROUND_NET VSS!
*
*LAYER_MAP
*0 none
*1 metal1
*2 li
*3 poly
*4 diff
*5 licon_diff
*6 mcon
*7 licon
*8 FOX

*|NET B 8.55225e-16
*|P (B X 0 0.4720 2.3920) // $llx=0.4720 $lly=2.3920 $urx=0.4720 $ury=2.3920 $lvl=1
*|I (Mmp1:g Mmp1 g X 0 0.4750 3.3550) // $llx=0.4750 $lly=3.3550 $urx=0.4750 $ury=3.3550 $lvl=3
*|I (MNM0:g MNM0 g X 0 0.4750 0.6075) // $llx=0.4750 $lly=0.6075 $urx=0.4750 $ury=0.6075 $lvl=3
*|S (B:8 0.4750 3.8950) // $llx=0.4750 $lly=3.8950 $urx=0.4750 $ury=3.8950 $lvl=3
*|S (B:9 0.4750 2.4550) // $llx=0.4750 $lly=2.4550 $urx=0.4750 $ury=2.4550 $lvl=3
*|S (B:10 0.4750 2.2900) // $llx=0.4750 $lly=2.2900 $urx=0.4750 $ury=2.2900 $lvl=3
*|S (B:11 0.4750 0.2450) // $llx=0.4750 $lly=0.2450 $urx=0.4750 $ury=0.2450 $lvl=3
*|S (B:12 0.6400 2.4550) // $llx=0.6400 $lly=2.4550 $urx=0.6400 $ury=2.4550 $lvl=2
*|S (B:13 0.4750 2.4550) // $llx=0.4750 $lly=2.4550 $urx=0.4750 $ury=2.4550 $lvl=2
*|S (B:14 0.4000 2.4550) // $llx=0.4000 $lly=2.4550 $urx=0.4000 $ury=2.4550 $lvl=2
*|S (B:15 0.0950 2.4550) // $llx=0.0950 $lly=2.4550 $urx=0.0950 $ury=2.4550 $lvl=2
*|S (B:16 0.4600 2.9845) // $llx=0.4600 $lly=2.9845 $urx=0.4600 $ury=2.9845 $lvl=1
*|S (B:17 0.4375 2.5995) // $llx=0.4375 $lly=2.5995 $urx=0.4375 $ury=2.5995 $lvl=1
*|S (B:18 0.4000 2.4550) // $llx=0.4000 $lly=2.4550 $urx=0.4000 $ury=2.4550 $lvl=1
*|S (B:19 0.4375 2.3100) // $llx=0.4375 $lly=2.3100 $urx=0.4375 $ury=2.3100 $lvl=1
*|S (B:20 0.4600 1.5500) // $llx=0.4600 $lly=1.5500 $urx=0.4600 $ury=1.5500 $lvl=1
CB1 MNM0:g VSS! 1.40354e-18 $lvl=3
CB2 B:18 VSS! 9.41397e-18 $lvl=1
CB3 B:16 VSS! 3.32735e-18 $lvl=1
CB4 B:20 VSS! 9.28228e-18 $lvl=1
CB5 B:8 VSS! 1.11575e-18 $lvl=3
CB6 B:15 VSS! 4.05258e-18 $lvl=2
CB7 B:14 VSS! 3.95922e-18 $lvl=2
CB8 B:9 VSS! 6.08525e-18 $lvl=3
CB9 MNM0:g net2 8.22034e-19 $lvl1=3 $lvl2=2
CB10 B:20 net2 5.2534e-19 $lvl1=1 $lvl2=2
CB11 MNM0:g net2:4 5.14004e-19 $lvl1=3 $lvl2=2
CB12 MNM0:g net2:3 6.43065e-17 $lvl1=3 $lvl2=2
CB13 B:20 net61:56 3.94048e-18 $lvl1=1 $lvl2=2
CB14 B:14 net61:62 3.73928e-18 $lvl1=2 $lvl2=1
CB15 B:20 net61:57 3.0077e-18 $lvl1=1 $lvl2=2
CB16 B:14 net61:53 2.86544e-18 $lvl1=2 $lvl2=2
CB17 B:20 net61:59 2.66352e-18 $lvl1=1 $lvl2=1
CB18 B:16 net61:53 2.62318e-18 $lvl1=1 $lvl2=2
CB19 B:20 net61:44 2.03966e-18 $lvl1=1 $lvl2=2
CB20 B:16 net61:50 2.03815e-18 $lvl1=1 $lvl2=2
CB21 B:9 net61:53 1.91224e-18 $lvl1=3 $lvl2=2
CB22 B:9 net61:49 1.74643e-18 $lvl1=3 $lvl2=2
CB23 B:16 net61:49 1.40924e-18 $lvl1=1 $lvl2=2
CB24 B:18 net61:60 1.28259e-18 $lvl1=1 $lvl2=1
CB25 B:18 net61:53 1.21144e-18 $lvl1=1 $lvl2=2
CB26 B:14 net61:49 1.05623e-18 $lvl1=2 $lvl2=2
CB27 B:20 net61:64 9.79678e-19 $lvl1=1 $lvl2=1
CB28 B:9 net61:62 9.14309e-19 $lvl1=3 $lvl2=1
CB29 B:8 net61:53 8.63637e-19 $lvl1=3 $lvl2=2
CB30 B:18 net61:44 8.26316e-19 $lvl1=1 $lvl2=2
CB31 MNM0:g net61:48 7.96763e-19 $lvl1=3 $lvl2=2
CB32 B:20 net61:45 7.92573e-19 $lvl1=1 $lvl2=2
CB33 B:9 net61:64 7.92505e-19 $lvl1=3 $lvl2=1
CB34 B:16 net61:62 7.90499e-19 $lvl1=1 $lvl2=1
CB35 B:18 net61:59 7.00789e-19 $lvl1=1 $lvl2=1
CB36 B:18 net61:49 6.43482e-19 $lvl1=1 $lvl2=2
CB37 B:15 net61:64 6.16658e-19 $lvl1=2 $lvl2=1
CB38 B:9 Mmp1:d 5.83237e-19 $lvl1=3 $lvl2=4
CB39 B:18 net61:56 5.51533e-19 $lvl1=1 $lvl2=2
CB40 B:15 net61:53 5.10146e-19 $lvl1=2 $lvl2=2
CB41 MNM0:g net61:57 5.03591e-19 $lvl1=3 $lvl2=2
CB42 B:15 net61:62 5.01034e-19 $lvl1=2 $lvl2=1
CB43 B:9 net61:57 4.46839e-19 $lvl1=3 $lvl2=2
CB44 B:18 net61:45 3.80412e-19 $lvl1=1 $lvl2=2
CB45 MNM0:g net61:56 3.7297e-19 $lvl1=3 $lvl2=2
CB46 B:9 net61:44 3.72775e-19 $lvl1=3 $lvl2=2
CB47 B:18 net61:57 3.52001e-19 $lvl1=1 $lvl2=2
CB48 B:15 net61:49 3.09505e-19 $lvl1=2 $lvl2=2
CB49 B:16 net61:60 2.63033e-19 $lvl1=1 $lvl2=1
CB50 MNM0:g net61:45 2.5906e-19 $lvl1=3 $lvl2=2
CB51 B:20 MNM0:d 2.58608e-19 $lvl1=1 $lvl2=4
CB52 B:9 net61:56 2.57625e-19 $lvl1=3 $lvl2=2
CB53 B:18 net61:50 2.55879e-19 $lvl1=1 $lvl2=2
CB54 B:15 net61:44 2.53264e-19 $lvl1=2 $lvl2=2
CB55 B:15 net61:57 2.38461e-19 $lvl1=2 $lvl2=2
CB56 B:14 net61:50 2.32893e-19 $lvl1=2 $lvl2=2
CB57 B:9 net61:43 2.29973e-19 $lvl1=3 $lvl2=3
CB58 B:14 net61:56 2.1681e-19 $lvl1=2 $lvl2=2
CB59 B:9 net61:60 2.15591e-19 $lvl1=3 $lvl2=1
CB60 B:15 net61:60 2.14456e-19 $lvl1=2 $lvl2=1
CB61 B:18 net61:62 4.56137e-17 $lvl1=1 $lvl2=1
CB62 B:16 net61:64 3.95956e-17 $lvl1=1 $lvl2=1
CB63 B:14 net61:64 5.85753e-18 $lvl1=2 $lvl2=1
CB64 B:18 net61:64 4.13524e-17 $lvl1=1 $lvl2=1
CB65 B:8 net61:49 1.27123e-16 $lvl1=3 $lvl2=2
CB66 MNM0:g net61:44 6.63037e-17 $lvl1=3 $lvl2=2
CB67 B:20 net61:60 5.00249e-18 $lvl1=1 $lvl2=1
CB68 B:20 net61:62 5.06449e-17 $lvl1=1 $lvl2=1
CB69 MNM0:g VSS!:7 1.43557e-18 $lvl1=3 $lvl2=2
CB70 MNM0:g VSS!:12 1.40878e-18 $lvl1=3 $lvl2=2
CB71 B:20 VSS!:15 1.08948e-18 $lvl1=1 $lvl2=1
CB72 MNM0:g VSS!:8 6.05701e-18 $lvl1=3 $lvl2=2
CB73 B:14 VDD! 3.70924e-18 $lvl1=2 $lvl2=1
CB74 B:18 VDD!:27 1.80935e-18 $lvl1=1 $lvl2=1
CB75 B:16 VDD!:27 1.74376e-18 $lvl1=1 $lvl2=1
CB76 B:18 VDD!:12 1.59987e-18 $lvl1=1 $lvl2=2
CB77 B:8 VDD!:12 1.52229e-18 $lvl1=3 $lvl2=2
CB78 B:8 VDD!:5 1.47317e-18 $lvl1=3 $lvl2=2
CB79 B:9 Mmp2:s 1.40613e-18 $lvl1=3 $lvl2=4
CB80 B:9 Mmp1:s 9.08848e-19 $lvl1=3 $lvl2=4
CB81 B:20 VDD!:1 5.95724e-19 $lvl1=1 $lvl2=2
CB82 B:16 VDD!:12 5.5169e-19 $lvl1=1 $lvl2=2
CB83 B:20 VDD!:27 4.74243e-19 $lvl1=1 $lvl2=1
CB84 B:15 VDD!:27 4.39824e-19 $lvl1=2 $lvl2=1
CB85 B:16 VDD!:4 3.98284e-19 $lvl1=1 $lvl2=2
CB86 B:16 VDD!:9 3.70356e-19 $lvl1=1 $lvl2=2
CB87 B:15 VDD!:12 3.56003e-19 $lvl1=2 $lvl2=2
CB88 B:14 VDD!:12 7.78809e-18 $lvl1=2 $lvl2=2
CB89 B:8 VDD!:1 1.31262e-16 $lvl1=3 $lvl2=2
CB90 B:15 VDD! 1.18022e-17 $lvl1=2 $lvl2=1
CB91 B:9 VDD!:12 6.90106e-18 $lvl1=3 $lvl2=2
CB92 B:18 VDD! 2.38779e-17 $lvl1=1 $lvl2=1
CB93 B:16 VDD!:1 8.32899e-18 $lvl1=1 $lvl2=2
CB94 B:16 VDD! 1.05781e-17 $lvl1=1 $lvl2=1
CB95 B:20 VDD! 1.62991e-17 $lvl1=1 $lvl2=1
CB96 B:15 VDD!:1 5.84791e-18 $lvl1=2 $lvl2=2
CB97 B:14 VDD!:1 4.37701e-18 $lvl1=2 $lvl2=2
CB98 B:9 VDD!:1 5.38663e-18 $lvl1=3 $lvl2=2
CB99 B:8 VDD!:4 7.60733e-18 $lvl1=3 $lvl2=2
CB100 B:9 VDD! 1.91256e-17 $lvl1=3 $lvl2=1
CB101 B:18 VDD!:1 5.09545e-18 $lvl1=1 $lvl2=2
ReB14 B:16 B:17 0.184958 $metal1  $L=0.3845 $W=0.260000 $SI_W=0.26 $TYPE=10 $DIR=1 $LLX=0.330000 $LLY=2.600000 $URX=0.590000 $URY=2.984500 $lvl=1
ReB15 B:17 B:18 0.062250 $metal1  $L=0.1445 $W=0.305000 $SI_W=0.305 $TYPE=10 $DIR=1 $LLX=0.285000 $LLY=2.455000 $URX=0.590000 $URY=2.599500 $lvl=1
ReB16 B:18 B 0.025820 $metal1  $L=0.063 $W=0.305000 $SI_W=0.305 $TYPE=10 $DIR=1 $LLX=0.285000 $LLY=2.392000 $URX=0.590000 $URY=2.455000 $lvl=1
ReB17 B B:19 0.033504 $metal1  $L=0.0815 $W=0.305000 $SI_W=0.305 $TYPE=10 $DIR=1 $LLX=0.285000 $LLY=2.310500 $URX=0.590000 $URY=2.392000 $lvl=1
ReB18 B:19 B:20 0.365487 $metal1  $L=0.76 $W=0.260000 $SI_W=0.26 $TYPE=10 $DIR=1 $LLX=0.330000 $LLY=1.550000 $URX=0.590000 $URY=2.310000 $lvl=1
RfB19 B:12 B:13 12.423529 $li  $L=0.165 $W=0.170000 $SI_W=0.17 $TYPE=10 $DIR=0 $LLX=0.475000 $LLY=2.370000 $URX=0.640000 $URY=2.540000 $lvl=2
RfB20 B:13 B:14 5.647059 $li  $L=0.075 $W=1000000 $SI_W=1000000 $TYPE=1,10 $DIR=0 $LLX=0.400000 $LLY=2.370000 $URX=0.475000 $URY=2.540000 $lvl=2
RfB21 B:14 B:15 22.964706 $li  $L=0.305 $W=0.170000 $SI_W=0.17 $TYPE=10 $DIR=0 $LLX=0.095000 $LLY=2.370000 $URX=0.400000 $URY=2.540000 $lvl=2
RgB22 B:8 Mmp1:g 173.519989 $poly  $L=0.54 $W=0.150000 $SI_W=0.15 $TYPE=10 $DIR=1 $LLX=0.400000 $LLY=3.355000 $URX=0.550000 $URY=3.895000 $lvl=3
RgB23 Mmp1:g B:9 270.359070 $poly  $L=0.9 $W=0.150000 $SI_W=0.15 $TYPE=10 $DIR=1 $LLX=0.400000 $LLY=2.455000 $URX=0.550000 $URY=3.355000 $lvl=3
RgB24 B:9 B:10 34.134449 $poly  $L=0.1645 $W=0.270000 $SI_W=0.27 $TYPE=10 $DIR=1 $LLX=0.340000 $LLY=2.290500 $URX=0.610000 $URY=2.455000 $lvl=3
RgB25 B:10 MNM0:g 540.687988 $poly  $L=1.6825 $W=0.150000 $SI_W=0.15 $TYPE=10 $DIR=1 $LLX=0.400000 $LLY=0.607500 $URX=0.550000 $URY=2.290000 $lvl=3
RgB26 MNM0:g B:11 116.483322 $poly  $L=0.3625 $W=0.150000 $SI_W=0.15 $TYPE=10 $DIR=1 $LLX=0.400000 $LLY=0.245000 $URX=0.550000 $URY=0.607500 $lvl=3
RjB27 B:14 B:18 152.000000 $mcon  $L=0.17 $W=0.17 $A=0.0289 $VC=0 $SAVL=0 $SAVC=0 $SI_A=0.0289 $COVER_DIR=0 $LLX=0.000000 $LLY=0.000000 $URX=0.170000 $URY=0.170000 $lvl=6
RiB28 B:9 B:13 15.000000 $licon  $L=0.17 $W=0.17 $A=0.0289 $VC=0 $SAVL=0 $SAVC=0 $SI_A=0.0289 $COVER_DIR=0 $LLX=0.000000 $LLY=0.000000 $URX=0.170000 $URY=0.170000 $lvl=7
*
*|NET VSS! 1.72976e-15
*|P (VSS! X 0 1.3500 0.0050) // $llx=1.3500 $lly=0.0050 $urx=1.3500 $ury=0.0050 $lvl=1
*|I (Mmn2:s Mmn2 s X 0 1.3195 0.7750) // $llx=1.3195 $lly=0.7750 $urx=1.3195 $ury=0.7750 $lvl=4
*|I (Mmn2:b Mmn2 b X 0 1.3950 0.7750) // $llx=1.3950 $lly=0.7750 $urx=1.3950 $ury=0.7750 $lvl=8
*|I (Mmn2@1:s Mmn2@1 s X 0 1.9005 0.7750) // $llx=1.9005 $lly=0.7750 $urx=1.9005 $ury=0.7750 $lvl=4
*|I (Mmn2@1:b Mmn2@1 b X 0 1.8250 0.7750) // $llx=1.8250 $lly=0.7750 $urx=1.8250 $ury=0.7750 $lvl=8
*|I (MNM0:b MNM0 b X 0 0.4750 0.6075) // $llx=0.4750 $lly=0.6075 $urx=0.4750 $ury=0.6075 $lvl=8
*|I (MNM1:s MNM1 s X 0 0.9805 0.6075) // $llx=0.9805 $lly=0.6075 $urx=0.9805 $ury=0.6075 $lvl=4
*|I (MNM1:b MNM1 b X 0 0.9050 0.6075) // $llx=0.9050 $lly=0.6075 $urx=0.9050 $ury=0.6075 $lvl=8
*|S (VSS!:1 2.0400 1.1550) // $llx=2.0400 $lly=1.1550 $urx=2.0400 $ury=1.1550 $lvl=2
*|S (VSS!:3 2.0400 0.7750) // $llx=2.0400 $lly=0.7750 $urx=2.0400 $ury=0.7750 $lvl=2
*|S (VSS!:4 2.0700 0.0000) // $llx=2.0700 $lly=0.0000 $urx=2.0700 $ury=0.0000 $lvl=2
*|S (VSS!:5 2.0700 0.0000) // $llx=2.0700 $lly=0.0000 $urx=2.0700 $ury=0.0000 $lvl=4
*|S (VSS!:7 1.1800 0.0000) // $llx=1.1800 $lly=0.0000 $urx=1.1800 $ury=0.0000 $lvl=2
*|S (VSS!:8 0.0000 0.0000) // $llx=0.0000 $lly=0.0000 $urx=0.0000 $ury=0.0000 $lvl=2
*|S (VSS!:9 4.1395 0.0000) // $llx=4.1395 $lly=0.0000 $urx=4.1395 $ury=0.0000 $lvl=2
*|S (VSS!:11 1.1800 0.7750) // $llx=1.1800 $lly=0.7750 $urx=1.1800 $ury=0.7750 $lvl=2
*|S (VSS!:12 1.1800 1.1550) // $llx=1.1800 $lly=1.1550 $urx=1.1800 $ury=1.1550 $lvl=2
*|S (VSS!:13 4.1400 0.0000) // $llx=4.1400 $lly=0.0000 $urx=4.1400 $ury=0.0000 $lvl=1
*|S (VSS!:14 2.0700 0.0000) // $llx=2.0700 $lly=0.0000 $urx=2.0700 $ury=0.0000 $lvl=1
*|S (VSS!:15 0.0000 0.0000) // $llx=0.0000 $lly=0.0000 $urx=0.0000 $ury=0.0000 $lvl=1
ReE100 VSS!:13 VSS!:14 0.646875 $metal1  $L=2.07 $W=0.400000 $SI_W=0.4 $TYPE=10 $DIR=0 $LLX=2.070000 $LLY=-0.199500 $URX=4.140000 $URY=0.200000 $lvl=1
ReE101 VSS!:14 VSS! 0.225000 $metal1  $L=0.72 $W=0.400000 $SI_W=0.4 $TYPE=10 $DIR=0 $LLX=1.350000 $LLY=-0.199500 $URX=2.070000 $URY=0.200000 $lvl=1
ReE102 VSS! VSS!:15 0.421875 $metal1  $L=1.35 $W=0.400000 $SI_W=0.4 $TYPE=10 $DIR=0 $LLX=0.000000 $LLY=-0.199500 $URX=1.350000 $URY=0.200000 $lvl=1
RfE103 VSS!:1 VSS!:3 28.611765 $li  $L=0.38 $W=0.170000 $SI_W=0.17 $TYPE=10 $DIR=1 $LLX=1.955000 $LLY=0.775000 $URX=2.125000 $URY=1.155000 $lvl=2
RfE104 VSS!:3 VSS!:4 55.341179 $li  $L=0.775 $W=0.170000 $SI_W=0.17 $TYPE=10 $DIR=1 $LLX=1.955000 $LLY=0.000000 $URX=2.125000 $URY=0.775000 $lvl=2
RfE105 VSS!:4 VSS!:7 45.555199 $li  $L=0.88975 $W=0.250000 $SI_W=0.25 $TYPE=10 $DIR=0 $LLX=1.180000 $LLY=-0.124500 $URX=2.070000 $URY=0.125000 $lvl=2
RfE106 VSS!:7 VSS!:8 60.428799 $li  $L=1.18025 $W=0.250000 $SI_W=0.25 $TYPE=10 $DIR=0 $LLX=0.000000 $LLY=-0.124500 $URX=1.180000 $URY=0.125000 $lvl=2
RfE107 VSS!:4 VSS!:9 105.958397 $li  $L=2.0695 $W=0.250000 $SI_W=0.25 $TYPE=10 $DIR=0 $LLX=2.070000 $LLY=-0.124500 $URX=4.139000 $URY=0.125000 $lvl=2
RfE108 VSS!:7 VSS!:11 55.328377 $li  $L=0.77475 $W=0.170000 $SI_W=0.17 $TYPE=10 $DIR=1 $LLX=1.095000 $LLY=0.000000 $URX=1.265000 $URY=0.775000 $lvl=2
RfE109 VSS!:11 VSS!:12 28.611765 $li  $L=0.38 $W=0.170000 $SI_W=0.17 $TYPE=10 $DIR=1 $LLX=1.095000 $LLY=0.775000 $URX=1.265000 $URY=1.155000 $lvl=2
RhE110 Mmn2@1:s VSS!:3 7.500000 $licon_diff  $A=0.0578 $VC=0 $SAVL=0 $SAVC=0 $SI_A=0.0578 $COVER_DIR=0 $LLX=0.000000 $LLY=0.000000 $URX=-0.057800 $URY=-2.000000 $lvl=5
RhE111 Mmn2:s VSS!:11 7.500000 $licon_diff  $A=0.0578 $VC=0 $SAVL=0 $SAVC=0 $SI_A=0.0578 $COVER_DIR=0 $LLX=0.000000 $LLY=0.000000 $URX=-0.057800 $URY=-2.000000 $lvl=5
Rh_3_E112 VSS!:5 VSS!:4 1.875000 $licon_diff  $A=0.2312 $VC=0 $SAVL=0 $SAVC=0 $SI_A=0.2312 $COVER_DIR=0 $LLX=0.000000 $LLY=0.000000 $URX=-0.231200 $URY=-8.000000 $lvl=5
RjE113 VSS!:4 VSS!:14 19.000000 $mcon  $A=0.2312 $VC=0 $SAVL=0 $SAVC=0 $SI_A=0.2312 $COVER_DIR=0 $LLX=0.000000 $LLY=0.000000 $URX=-0.231200 $URY=-8.000000 $lvl=6
RmwE114 Mmn2:b VSS! 0.001000 $FOX $W=1000000 $SI_W=1000000 $TYPE=1 $DIR=0
RmwE115 Mmn2@1:b VSS! 0.001000 $FOX $W=1000000 $SI_W=1000000 $TYPE=1 $DIR=0
RmwE116 MNM0:b VSS! 0.001000 $FOX $W=1000000 $SI_W=1000000 $TYPE=1 $DIR=0
RmwE117 MNM1:s Mmn2:s 0.001000 $diff $W=1000000 $SI_W=1000000 $TYPE=1 $DIR=0
RmwE118 MNM1:b VSS! 0.001000 $FOX $W=1000000 $SI_W=1000000 $TYPE=1 $DIR=0
*
*|NET A 9.34483e-16
*|P (A X 0 1.3920 2.1810) // $llx=1.3920 $lly=2.1810 $urx=1.3920 $ury=2.1810 $lvl=1
*|I (Mmp0:g Mmp0 g X 0 0.9050 3.3550) // $llx=0.9050 $lly=3.3550 $urx=0.9050 $ury=3.3550 $lvl=3
*|I (MNM1:g MNM1 g X 0 0.9050 0.6075) // $llx=0.9050 $lly=0.6075 $urx=0.9050 $ury=0.6075 $lvl=3
*|S (A:8 0.9050 3.8950) // $llx=0.9050 $lly=3.8950 $urx=0.9050 $ury=3.8950 $lvl=3
*|S (A:9 0.9050 1.8800) // $llx=0.9050 $lly=1.8800 $urx=0.9050 $ury=1.8800 $lvl=3
*|S (A:10 0.9050 1.7150) // $llx=0.9050 $lly=1.7150 $urx=0.9050 $ury=1.7150 $lvl=3
*|S (A:11 0.9050 0.2450) // $llx=0.9050 $lly=0.2450 $urx=0.9050 $ury=0.2450 $lvl=3
*|S (A:12 1.5450 1.8800) // $llx=1.5450 $lly=1.8800 $urx=1.5450 $ury=1.8800 $lvl=2
*|S (A:13 1.3800 1.8800) // $llx=1.3800 $lly=1.8800 $urx=1.3800 $ury=1.8800 $lvl=2
*|S (A:14 0.9050 1.8800) // $llx=0.9050 $lly=1.8800 $urx=0.9050 $ury=1.8800 $lvl=2
*|S (A:15 0.7200 1.8800) // $llx=0.7200 $lly=1.8800 $urx=0.7200 $ury=1.8800 $lvl=2
*|S (A:16 1.3800 2.7750) // $llx=1.3800 $lly=2.7750 $urx=1.3800 $ury=2.7750 $lvl=1
*|S (A:17 1.3800 1.8800) // $llx=1.3800 $lly=1.8800 $urx=1.3800 $ury=1.8800 $lvl=1
*|S (A:18 1.3800 1.3400) // $llx=1.3800 $lly=1.3400 $urx=1.3800 $ury=1.3400 $lvl=1
CA1 MNM1:g VSS! 9.84452e-19 $lvl=3
CA2 Mmp0:g VSS! 1.08473e-18 $lvl=3
CA3 A:17 VSS! 3.43215e-18 $lvl=1
CA4 A:16 VSS! 4.70321e-18 $lvl=1
CA5 A:18 VSS! 5.32127e-18 $lvl=1
CA6 A:14 VSS! 2.2177e-18 $lvl=2
CA7 A:12 VSS! 4.99515e-18 $lvl=2
CA8 A:15 VSS! 3.12976e-18 $lvl=2
CA9 A:13 VSS! 1.3699e-18 $lvl=2
CA10 A:9 VSS! 1.91899e-17 $lvl=3
CA11 MNM1:g net2 6.06507e-19 $lvl1=3 $lvl2=2
CA12 MNM1:g net2:4 5.11853e-19 $lvl1=3 $lvl2=2
CA13 MNM1:g net2:3 6.55951e-17 $lvl1=3 $lvl2=2
CA14 A:15 net61:62 4.55912e-18 $lvl1=2 $lvl2=1
CA15 A:18 net61:59 4.25957e-18 $lvl1=1 $lvl2=1
CA16 A:9 net61:31 4.11278e-18 $lvl1=3 $lvl2=3
CA17 A:12 net61:56 3.6444e-18 $lvl1=2 $lvl2=2
CA18 A:13 net61:62 3.13278e-18 $lvl1=2 $lvl2=1
CA19 A:9 net61:57 3.03553e-18 $lvl1=3 $lvl2=2
CA20 A:15 net61:56 2.84326e-18 $lvl1=2 $lvl2=2
CA21 A:13 net61:55 2.75621e-18 $lvl1=2 $lvl2=2
CA22 A:12 net61:62 2.64379e-18 $lvl1=2 $lvl2=1
CA23 A:15 net61:57 2.41512e-18 $lvl1=2 $lvl2=2
CA24 A:9 net61:43 1.74848e-18 $lvl1=3 $lvl2=3
CA25 A:12 net61:43 1.56166e-18 $lvl1=2 $lvl2=3
CA26 A:14 net61:55 1.37453e-18 $lvl1=2 $lvl2=2
CA27 A:9 net61:55 1.28452e-18 $lvl1=3 $lvl2=2
CA28 A:9 net61:62 1.25577e-18 $lvl1=3 $lvl2=1
CA29 A:14 net61:57 1.15097e-18 $lvl1=2 $lvl2=2
CA30 A:12 net61:41 1.02386e-18 $lvl1=2 $lvl2=3
CA31 A:13 net61:56 9.24377e-19 $lvl1=2 $lvl2=2
CA32 A:17 net61:64 8.16719e-19 $lvl1=1 $lvl2=1
CA33 Mmp0:g net61:53 7.67412e-19 $lvl1=3 $lvl2=2
CA34 A:14 net61:31 7.15929e-19 $lvl1=2 $lvl2=3
CA35 A:17 net61:55 7.09899e-19 $lvl1=1 $lvl2=2
CA36 A:18 net61:31 6.50334e-19 $lvl1=1 $lvl2=3
CA37 A:13 net61:31 5.14299e-19 $lvl1=2 $lvl2=3
CA38 A:18 net61:64 5.08209e-19 $lvl1=1 $lvl2=1
CA39 MNM1:g net61:56 5.00829e-19 $lvl1=3 $lvl2=2
CA40 MNM1:g net61:44 4.79165e-19 $lvl1=3 $lvl2=2
CA41 A:9 net61:44 4.5942e-19 $lvl1=3 $lvl2=2
CA42 A:16 net61:55 4.54583e-19 $lvl1=1 $lvl2=2
CA43 A:18 net61:60 4.48117e-19 $lvl1=1 $lvl2=1
CA44 A:9 net61:42 3.80841e-19 $lvl1=3 $lvl2=3
CA45 A:17 net61:56 3.54547e-19 $lvl1=1 $lvl2=2
CA46 A:9 net61:64 3.29231e-19 $lvl1=3 $lvl2=1
CA47 Mmp0:g net61:64 2.95051e-19 $lvl1=3 $lvl2=1
CA48 A:15 net61:44 2.91542e-19 $lvl1=2 $lvl2=2
CA49 A:14 net61:64 2.83147e-19 $lvl1=2 $lvl2=1
CA50 A:17 net61:59 2.66767e-19 $lvl1=1 $lvl2=1
CA51 A:12 net61:39 2.64212e-19 $lvl1=2 $lvl2=3
CA52 A:16 net61:31 2.28141e-19 $lvl1=1 $lvl2=3
CA53 A:15 net61:64 2.25876e-19 $lvl1=2 $lvl2=1
CA54 MNM1:g net61:59 2.23274e-19 $lvl1=3 $lvl2=1
CA55 A:14 net61:43 2.20554e-19 $lvl1=2 $lvl2=3
CA56 MNM1:g net61:31 2.17546e-19 $lvl1=3 $lvl2=3
CA57 A:9 net61:41 2.12273e-19 $lvl1=3 $lvl2=3
CA58 MNM1:g net61:57 2.09035e-19 $lvl1=3 $lvl2=2
CA59 A:16 net61:59 2.07109e-19 $lvl1=1 $lvl2=1
CA60 A:12 net61:55 1.38847e-17 $lvl1=2 $lvl2=2
CA61 A:18 net61:62 4.07141e-17 $lvl1=1 $lvl2=1
CA62 A:9 net61:56 5.96296e-18 $lvl1=3 $lvl2=2
CA63 A:16 net61:62 2.40213e-17 $lvl1=1 $lvl2=1
CA64 A:17 net61:62 2.58821e-17 $lvl1=1 $lvl2=1
CA65 A:18 net61:55 1.14385e-17 $lvl1=1 $lvl2=2
CA66 A:18 net61:56 5.0862e-18 $lvl1=1 $lvl2=2
CA67 A:16 net61:64 4.36621e-17 $lvl1=1 $lvl2=1
CA68 A:12 net61:31 9.17197e-18 $lvl1=2 $lvl2=3
CA69 Mmp0:g net61:49 1.32126e-16 $lvl1=3 $lvl2=2
CA70 A:14 net61:56 7.42194e-18 $lvl1=2 $lvl2=2
CA71 A:14 net61:62 8.97549e-18 $lvl1=2 $lvl2=1
CA72 A:18 VSS!:12 2.43709e-18 $lvl1=1 $lvl2=2
CA73 MNM1:g VSS!:8 1.32151e-18 $lvl1=3 $lvl2=2
CA74 MNM1:g VSS!:12 4.09432e-17 $lvl1=3 $lvl2=2
CA75 MNM1:g VSS!:7 7.86686e-18 $lvl1=3 $lvl2=2
CA76 A:14 VDD!:12 4.10165e-18 $lvl1=2 $lvl2=2
CA77 A:18 VDD! 3.73768e-18 $lvl1=1 $lvl2=1
CA78 A:17 VDD! 2.74985e-18 $lvl1=1 $lvl2=1
CA79 A:12 VDD!:15 1.85021e-18 $lvl1=2 $lvl2=2
CA80 A:9 Mmp2:s 1.80355e-18 $lvl1=3 $lvl2=4
CA81 A:16 VDD!:15 1.53138e-18 $lvl1=1 $lvl2=2
CA82 Mmp0:g VDD!:4 1.37702e-18 $lvl1=3 $lvl2=2
CA83 A:15 VDD! 1.35202e-18 $lvl1=2 $lvl2=1
CA84 A:13 VDD!:12 1.24222e-18 $lvl1=2 $lvl2=2
CA85 A:15 VDD!:12 1.1346e-18 $lvl1=2 $lvl2=2
CA86 A:17 VDD!:12 9.40182e-19 $lvl1=1 $lvl2=2
CA87 A:12 VDD! 8.54421e-19 $lvl1=2 $lvl2=1
CA88 Mmp0:g VDD!:1 5.31696e-19 $lvl1=3 $lvl2=2
CA89 A:12 VDD!:12 7.49006e-18 $lvl1=2 $lvl2=2
CA90 A:16 VDD! 6.86028e-18 $lvl1=1 $lvl2=1
CA91 Mmp0:g VDD!:12 7.00855e-17 $lvl1=3 $lvl2=2
CA92 A:9 VDD!:12 7.29847e-18 $lvl1=3 $lvl2=2
CA93 A:16 VDD!:12 1.68004e-17 $lvl1=1 $lvl2=2
CA94 A:9 VDD! 6.81104e-18 $lvl1=3 $lvl2=1
CA95 Mmp0:g VDD!:5 7.73114e-18 $lvl1=3 $lvl2=2
CA96 A:13 Y 4.25944e-18 $lvl1=2 $lvl2=1
CA97 A:16 Y:5 3.73671e-18 $lvl1=1 $lvl2=2
CA98 A:12 Y:1 2.08676e-18 $lvl1=2 $lvl2=2
CA99 A:18 Y:6 2.00879e-18 $lvl1=1 $lvl2=2
CA100 A:17 Y:21 1.50021e-18 $lvl1=1 $lvl2=1
CA101 A:13 Y:5 9.07458e-19 $lvl1=2 $lvl2=2
CA102 A:16 Y:2 8.50011e-19 $lvl1=1 $lvl2=2
CA103 A:16 Y:21 7.46616e-19 $lvl1=1 $lvl2=1
CA104 A:16 Y:26 6.64873e-19 $lvl1=1 $lvl2=1
CA105 A:17 Y:5 5.70206e-19 $lvl1=1 $lvl2=2
CA106 A:9 Y:1 4.99052e-19 $lvl1=3 $lvl2=2
CA107 A:17 Y:24 4.35907e-19 $lvl1=1 $lvl2=1
CA108 A:12 Y:21 4.19475e-19 $lvl1=2 $lvl2=1
CA109 A:18 Y:24 3.98437e-19 $lvl1=1 $lvl2=1
CA110 A:9 Y:5 3.32478e-19 $lvl1=3 $lvl2=2
CA111 A:12 Y:15 2.96499e-19 $lvl1=2 $lvl2=2
CA112 A:13 Y:1 2.76655e-19 $lvl1=2 $lvl2=2
CA113 A:12 Mmp2:d 2.63532e-19 $lvl1=2 $lvl2=4
CA114 A:18 Y:21 3.24509e-17 $lvl1=1 $lvl2=1
CA115 A:17 Y 3.10672e-17 $lvl1=1 $lvl2=1
CA116 A:16 Y:1 1.06874e-17 $lvl1=1 $lvl2=2
CA117 A:16 Y 5.86728e-17 $lvl1=1 $lvl2=1
CA118 A:12 Y 5.11147e-18 $lvl1=2 $lvl2=1
CA119 A:18 Y 2.24361e-17 $lvl1=1 $lvl2=1
CA120 A:12 Y:5 5.38984e-18 $lvl1=2 $lvl2=2
CA121 A:16 Y:24 2.38485e-17 $lvl1=1 $lvl2=1
CA122 A:15 B:20 3.13358e-18 $lvl1=2 $lvl2=1
CA123 A:15 B:18 2.71736e-18 $lvl1=2 $lvl2=1
CA124 A:15 B:14 2.32866e-18 $lvl1=2 $lvl2=2
CA125 A:16 B:18 2.10348e-18 $lvl1=1 $lvl2=1
CA126 A:9 B:14 1.81854e-18 $lvl1=3 $lvl2=2
CA127 A:15 B:9 1.58151e-18 $lvl1=2 $lvl2=3
CA128 Mmp0:g B:9 1.34837e-18 $lvl1=3 $lvl2=3
CA129 A:14 B:14 1.25486e-18 $lvl1=2 $lvl2=2
CA130 A:9 B:20 1.191e-18 $lvl1=3 $lvl2=1
CA131 A:14 B:20 1.14302e-18 $lvl1=2 $lvl2=1
CA132 A:14 B:18 9.50011e-19 $lvl1=2 $lvl2=1
CA133 A:9 B:18 8.93031e-19 $lvl1=3 $lvl2=1
CA134 A:18 B:20 6.69345e-19 $lvl1=1 $lvl2=1
CA135 A:14 B:9 6.53822e-19 $lvl1=2 $lvl2=3
CA136 A:9 B:15 6.0641e-19 $lvl1=3 $lvl2=2
CA137 A:15 B:15 5.94969e-19 $lvl1=2 $lvl2=2
CA138 A:17 B:18 5.79135e-19 $lvl1=1 $lvl2=1
CA139 A:16 B:20 5.61182e-19 $lvl1=1 $lvl2=1
CA140 A:16 B:16 5.35859e-19 $lvl1=1 $lvl2=1
CA141 A:9 B:9 4.59959e-18 $lvl1=3 $lvl2=3
ReA1 A:16 A 0.285577 $metal1  $L=0.594 $W=0.260000 $SI_W=0.26 $TYPE=10 $DIR=1 $LLX=1.250000 $LLY=2.181000 $URX=1.510000 $URY=2.775000 $lvl=1
ReA2 A A:17 0.144712 $metal1  $L=0.301 $W=0.260000 $SI_W=0.26 $TYPE=10 $DIR=1 $LLX=1.250000 $LLY=1.880000 $URX=1.510000 $URY=2.181000 $lvl=1
ReA3 A:17 A:18 0.259615 $metal1  $L=0.54 $W=0.260000 $SI_W=0.26 $TYPE=10 $DIR=1 $LLX=1.250000 $LLY=1.340000 $URX=1.510000 $URY=1.880000 $lvl=1
RfA4 A:12 A:13 12.423529 $li  $L=0.165 $W=0.170000 $SI_W=0.17 $TYPE=10 $DIR=0 $LLX=1.380000 $LLY=1.795000 $URX=1.545000 $URY=1.965000 $lvl=2
RfA5 A:13 A:14 35.764706 $li  $L=0.475 $W=0.170000 $SI_W=0.17 $TYPE=10 $DIR=0 $LLX=0.905000 $LLY=1.795000 $URX=1.380000 $URY=1.965000 $lvl=2
RfA6 A:14 A:15 13.929413 $li  $L=0.185 $W=0.170000 $SI_W=0.17 $TYPE=10 $DIR=0 $LLX=0.720000 $LLY=1.795000 $URX=0.905000 $URY=1.965000 $lvl=2
RgA7 A:8 Mmp0:g 173.519989 $poly  $L=0.54 $W=0.150000 $SI_W=0.15 $TYPE=10 $DIR=1 $LLX=0.830000 $LLY=3.355000 $URX=0.980000 $URY=3.895000 $lvl=3
RgA8 Mmp0:g A:9 455.125732 $poly  $L=1.475 $W=0.150000 $SI_W=0.15 $TYPE=10 $DIR=1 $LLX=0.830000 $LLY=1.880000 $URX=0.980000 $URY=3.355000 $lvl=3
RgA9 A:9 A:10 34.134449 $poly  $L=0.1645 $W=0.270000 $SI_W=0.27 $TYPE=10 $DIR=1 $LLX=0.770000 $LLY=1.715500 $URX=1.040000 $URY=1.880000 $lvl=3
RgA10 A:10 MNM1:g 355.921295 $poly  $L=1.1075 $W=0.150000 $SI_W=0.15 $TYPE=10 $DIR=1 $LLX=0.830000 $LLY=0.607500 $URX=0.980000 $URY=1.715000 $lvl=3
RgA11 MNM1:g A:11 116.483322 $poly  $L=0.3625 $W=0.150000 $SI_W=0.15 $TYPE=10 $DIR=1 $LLX=0.830000 $LLY=0.245000 $URX=0.980000 $URY=0.607500 $lvl=3
RjA12 A:13 A:17 152.000000 $mcon  $L=0.17 $W=0.17 $A=0.0289 $VC=0 $SAVL=0 $SAVC=0 $SI_A=0.0289 $COVER_DIR=0 $LLX=0.000000 $LLY=0.000000 $URX=0.170000 $URY=0.170000 $lvl=6
RiA13 A:9 A:14 15.000000 $licon  $L=0.17 $W=0.17 $A=0.0289 $VC=0 $SAVL=0 $SAVC=0 $SI_A=0.0289 $COVER_DIR=0 $LLX=0.000000 $LLY=0.000000 $URX=0.170000 $URY=0.170000 $lvl=7
*
*|NET net61 5.49615e-15
*|I (Mmp2:g Mmp2 g X 0 1.3950 3.0150) // $llx=1.3950 $lly=3.0150 $urx=1.3950 $ury=3.0150 $lvl=3
*|I (Mmp2@1:g Mmp2@1 g X 0 1.8250 3.0150) // $llx=1.8250 $lly=3.0150 $urx=1.8250 $ury=3.0150 $lvl=3
*|I (Mmp2@2:g Mmp2@2 g X 0 2.2550 3.0150) // $llx=2.2550 $lly=3.0150 $urx=2.2550 $ury=3.0150 $lvl=3
*|I (Mmp2@3:g Mmp2@3 g X 0 2.6850 3.0150) // $llx=2.6850 $lly=3.0150 $urx=2.6850 $ury=3.0150 $lvl=3
*|I (Mmp2@4:g Mmp2@4 g X 0 3.1150 3.0150) // $llx=3.1150 $lly=3.0150 $urx=3.1150 $ury=3.0150 $lvl=3
*|I (Mmp2@5:g Mmp2@5 g X 0 3.5450 3.0150) // $llx=3.5450 $lly=3.0150 $urx=3.5450 $ury=3.0150 $lvl=3
*|I (Mmp1:d Mmp1 d X 0 0.5505 3.3550) // $llx=0.5505 $lly=3.3550 $urx=0.5505 $ury=3.3550 $lvl=4
*|I (Mmp0:d Mmp0 d X 0 0.8295 3.3550) // $llx=0.8295 $lly=3.3550 $urx=0.8295 $ury=3.3550 $lvl=4
*|I (Mmn2:g Mmn2 g X 0 1.3950 0.7750) // $llx=1.3950 $lly=0.7750 $urx=1.3950 $ury=0.7750 $lvl=3
*|I (Mmn2@1:g Mmn2@1 g X 0 1.8250 0.7750) // $llx=1.8250 $lly=0.7750 $urx=1.8250 $ury=0.7750 $lvl=3
*|I (MNM0:d MNM0 d X 0 0.3995 0.6075) // $llx=0.3995 $lly=0.6075 $urx=0.3995 $ury=0.6075 $lvl=4
*|S (net61 1.3950 0.7750) // $llx=1.3950 $lly=0.7750 $urx=1.3950 $ury=0.7750 $lvl=3
*|S (net61:27 3.5450 3.8950) // $llx=3.5450 $lly=3.8950 $urx=3.5450 $ury=3.8950 $lvl=3
*|S (net61:28 3.5450 1.4300) // $llx=3.5450 $lly=1.4300 $urx=3.5450 $ury=1.4300 $lvl=3
*|S (net61:29 3.1150 1.4300) // $llx=3.1150 $lly=1.4300 $urx=3.1150 $ury=1.4300 $lvl=3
*|S (net61:30 2.6850 1.4300) // $llx=2.6850 $lly=1.4300 $urx=2.6850 $ury=1.4300 $lvl=3
*|S (net61:31 2.4700 1.4300) // $llx=2.4700 $lly=1.4300 $urx=2.4700 $ury=1.4300 $lvl=3
*|S (net61:32 2.2550 1.4300) // $llx=2.2550 $lly=1.4300 $urx=2.2550 $ury=1.4300 $lvl=3
*|S (net61:33 1.8250 1.4300) // $llx=1.8250 $lly=1.4300 $urx=1.8250 $ury=1.4300 $lvl=3
*|S (net61:34 1.3950 1.4300) // $llx=1.3950 $lly=1.4300 $urx=1.3950 $ury=1.4300 $lvl=3
*|S (net61:35 1.3000 1.4300) // $llx=1.3000 $lly=1.4300 $urx=1.3000 $ury=1.4300 $lvl=3
*|S (net61:36 3.6395 1.4300) // $llx=3.6395 $lly=1.4300 $urx=3.6395 $ury=1.4300 $lvl=3
*|S (net61:37 3.1150 3.8950) // $llx=3.1150 $lly=3.8950 $urx=3.1150 $ury=3.8950 $lvl=3
*|S (net61:38 2.6850 3.8950) // $llx=2.6850 $lly=3.8950 $urx=2.6850 $ury=3.8950 $lvl=3
*|S (net61:39 2.2550 3.8950) // $llx=2.2550 $lly=3.8950 $urx=2.2550 $ury=3.8950 $lvl=3
*|S (net61:40 1.8250 0.2450) // $llx=1.8250 $lly=0.2450 $urx=1.8250 $ury=0.2450 $lvl=3
*|S (net61:41 1.8250 3.8950) // $llx=1.8250 $lly=3.8950 $urx=1.8250 $ury=3.8950 $lvl=3
*|S (net61:42 1.3950 0.2450) // $llx=1.3950 $lly=0.2450 $urx=1.3950 $ury=0.2450 $lvl=3
*|S (net61:43 1.3950 3.8950) // $llx=1.3950 $lly=3.8950 $urx=1.3950 $ury=3.8950 $lvl=3
*|S (net61:44 0.2600 0.8200) // $llx=0.2600 $lly=0.8200 $urx=0.2600 $ury=0.8200 $lvl=2
*|S (net61:45 0.2600 0.6050) // $llx=0.2600 $lly=0.6050 $urx=0.2600 $ury=0.6050 $lvl=2
*|S (net61:48 0.2600 0.3950) // $llx=0.2600 $lly=0.3950 $urx=0.2600 $ury=0.3950 $lvl=2
*|S (net61:49 0.6900 3.7450) // $llx=0.6900 $lly=3.7450 $urx=0.6900 $ury=3.7450 $lvl=2
*|S (net61:50 0.6900 3.3850) // $llx=0.6900 $lly=3.3850 $urx=0.6900 $ury=3.3850 $lvl=2
*|S (net61:52 0.6900 3.3550) // $llx=0.6900 $lly=3.3550 $urx=0.6900 $ury=3.3550 $lvl=2
*|S (net61:53 0.6900 2.9650) // $llx=0.6900 $lly=2.9650 $urx=0.6900 $ury=2.9650 $lvl=2
*|S (net61:54 3.7550 1.4300) // $llx=3.7550 $lly=1.4300 $urx=3.7550 $ury=1.4300 $lvl=2
*|S (net61:55 2.4700 1.4300) // $llx=2.4700 $lly=1.4300 $urx=2.4700 $ury=1.4300 $lvl=2
*|S (net61:56 0.9050 1.4300) // $llx=0.9050 $lly=1.4300 $urx=0.9050 $ury=1.4300 $lvl=2
*|S (net61:57 0.7100 1.4300) // $llx=0.7100 $lly=1.4300 $urx=0.7100 $ury=1.4300 $lvl=2
*|S (net61:58 1.0195 0.7025) // $llx=1.0195 $lly=0.7025 $urx=1.0195 $ury=0.7025 $lvl=1
*|S (net61:59 0.9025 0.6050) // $llx=0.9025 $lly=0.6050 $urx=0.9025 $ury=0.6050 $lvl=1
*|S (net61:60 0.3745 0.6050) // $llx=0.3745 $lly=0.6050 $urx=0.3745 $ury=0.6050 $lvl=1
*|S (net61:61 0.2600 0.6050) // $llx=0.2600 $lly=0.6050 $urx=0.2600 $ury=0.6050 $lvl=1
*|S (net61:62 0.9050 1.4300) // $llx=0.9050 $lly=1.4300 $urx=0.9050 $ury=1.4300 $lvl=1
*|S (net61:63 0.9050 3.3850) // $llx=0.9050 $lly=3.3850 $urx=0.9050 $ury=3.3850 $lvl=1
*|S (net61:64 0.6900 3.3850) // $llx=0.6900 $lly=3.3850 $urx=0.6900 $ury=3.3850 $lvl=1
CF1 MNM0:d VSS! 7.09142e-19 $lvl=4
CF2 Mmp1:d VSS! 9.60485e-19 $lvl=4
CF3 net61:64 VSS! 5.61468e-18 $lvl=1
CF4 net61:62 VSS! 1.08339e-17 $lvl=1
CF5 net61:60 VSS! 2.52854e-17 $lvl=1
CF6 net61:59 VSS! 4.59748e-17 $lvl=1
CF7 net61:27 VSS! 9.51335e-19 $lvl=3
CF8 net61:37 VSS! 1.70794e-18 $lvl=3
CF9 net61:38 VSS! 2.42743e-18 $lvl=3
CF10 net61:39 VSS! 1.61583e-18 $lvl=3
CF11 net61:41 VSS! 1.22113e-18 $lvl=3
CF12 net61:43 VSS! 1.90038e-18 $lvl=3
CF13 net61:42 VSS! 1.45124e-18 $lvl=3
CF14 net61:40 VSS! 1.03353e-18 $lvl=3
CF15 net61:55 VSS! 3.22411e-17 $lvl=2
CF16 net61:57 VSS! 4.04264e-18 $lvl=2
CF17 net61:49 VSS! 2.71994e-18 $lvl=2
CF18 net61:53 VSS! 1.13481e-18 $lvl=2
CF19 net61:44 VSS! 1.03455e-17 $lvl=2
CF20 net61:48 VSS! 2.66145e-18 $lvl=2
CF21 net61:45 VSS! 3.19261e-18 $lvl=2
CF22 net61:50 VSS! 1.88736e-18 $lvl=2
CF23 net61:56 VSS! 6.20662e-18 $lvl=2
CF24 net61:31 VSS! 9.66097e-17 $lvl=3
CF25 net61:62 net2 1.21133e-18 $lvl1=1 $lvl2=2
CF26 net61:45 net2 1.16931e-18 $lvl1=2 $lvl2=2
CF27 net61:57 net2 1.08055e-18 $lvl1=2 $lvl2=2
CF28 net61:45 net2:4 9.72463e-19 $lvl1=2 $lvl2=2
CF29 net61:56 net2:3 9.35537e-19 $lvl1=2 $lvl2=2
CF30 net61:62 net2:3 7.77304e-19 $lvl1=1 $lvl2=2
CF31 net61:57 net2:3 7.70983e-19 $lvl1=2 $lvl2=2
CF32 net61:60 net2:4 5.67809e-19 $lvl1=1 $lvl2=2
CF33 net61:44 MNM0:s 4.29686e-19 $lvl1=2 $lvl2=4
CF34 MNM0:d net2:3 2.83192e-19 $lvl1=4 $lvl2=2
CF35 net61:42 net2:3 1.77628e-19 $lvl1=3 $lvl2=2
CF36 net61:48 net2:4 2.03842e-18 $lvl1=2 $lvl2=2
CF37 net61:60 net2:3 2.73679e-18 $lvl1=1 $lvl2=2
CF38 net61:56 net2 1.40211e-18 $lvl1=2 $lvl2=2
CF39 net61:59 net2:3 8.30845e-18 $lvl1=1 $lvl2=2
CF40 net61:44 net2:3 1.56293e-17 $lvl1=2 $lvl2=2
CF41 net61:59 net2:4 2.00765e-18 $lvl1=1 $lvl2=2
CF42 net61:44 net2 4.27177e-18 $lvl1=2 $lvl2=2
CF43 net61:45 net2:3 4.31551e-18 $lvl1=2 $lvl2=2
CF44 net61:48 net2:3 3.06455e-18 $lvl1=2 $lvl2=2
CF45 net61:60 net2 1.45555e-18 $lvl1=1 $lvl2=2
CF46 net61:44 net2:4 1.35292e-18 $lvl1=2 $lvl2=2
CF47 net61:59 net2 3.375e-18 $lvl1=1 $lvl2=2