*
*|DSPF 1.5
*
*|DATE "Wed Jan  8 22:56:07 2025"
*|VENDOR "Cadence Design Systems"
*|PROGRAM "Cadence Quantus Extraction"
*|VERSION "22.1.0-p089 Linux 64 bit - (Thu Jan 19 11:47:08 PST 2023)"
*|DESIGN CLKBUFX4_HS
*|DIVIDER /
*|DELIMITER :
*|DeviceFingerDelim "@"
*|BUSBIT []
*|GLOBAL_TEMPERATURE 25
*|OPERATING_TEMPERATURE 25

** *VIA_COVERAGE_CODES
** *index FF FS FP FU SF SS SP SU PF PS PP PU UF US UP UU X_by_Y
** * "FF" stands for Full landing and Full coverage
** *0 0 0 0 0 0 0 0 0 0 0 0 0 0 0 0 0
** *1 0 0 0 0 0 0 0 0 0 0 0 0 0 0 0 1 1x1
** *2 0 0 0 0 0 0 0 0 0 0 0 0 0 0 1 0 1x1
** *3 0 0 0 0 0 0 0 0 0 0 0 0 0 1 0 0 1x1
** *4 0 0 0 0 0 0 0 0 0 0 0 0 1 0 0 0 1x1
** *5 0 0 0 0 0 0 0 0 0 0 0 1 0 0 0 0 1x1
** *6 0 0 0 0 0 0 0 0 0 0 1 0 0 0 0 0 1x1
** *7 0 0 0 0 0 0 0 0 0 1 0 0 0 0 0 0 1x1
** *8 0 0 0 0 0 0 0 0 1 0 0 0 0 0 0 0 1x1
** *9 0 0 0 0 0 0 0 1 0 0 0 0 0 0 0 0 1x1
** *10 0 0 0 0 0 0 1 0 0 0 0 0 0 0 0 0 1x1
** *11 0 0 0 0 0 1 0 0 0 0 0 0 0 0 0 0 1x1
** *12 0 0 0 0 1 0 0 0 0 0 0 0 0 0 0 0 1x1
** *13 0 0 0 1 0 0 0 0 0 0 0 0 0 0 0 0 1x1
** *14 0 0 1 0 0 0 0 0 0 0 0 0 0 0 0 0 1x1
** *15 0 1 0 0 0 0 0 0 0 0 0 0 0 0 0 0 1x1
** *16 1 0 0 0 0 0 0 0 0 0 0 0 0 0 0 0 1x1

** *RESISTOR_TYPES
** *1 SHORTING_ELEMENT
** *2 PRES_NG
** *3 PRES_PG
** *4 PRES_NF
** *5 PRES_PF
** *6 TCN_NDIFF
** *7 TCN_PDIFF
** *8 TCN_NFIELD
** *9 TCN_PFIELD
** *10 QUALITY_EXTRACTED
** *11 GCNLAND
** *12 TCNLAND
** *13 DUMMY
** *14 RSD
** *15 BRIDGE

** *RESISTOR_CURRENT_DIRECTION
** *0 HORIZONTAL
** *1 VERTICAL
** *2 45 DEGREE

** QRC_TECH_DIR /vols/wfo_devel/projects/reference_SKY130/tech/sky130_release_0.0.4/quantus/extraction/typical 
** HIERARCHICAL_SPLIT_PINS_DELIMITER '%'
** caps2d version: 10
*
.SUBCKT  CLKBUFX4_HS A Y
*
*Net Section
*
*|GROUND_NET VSS!
*
*LAYER_MAP
*0 none
*1 metal1
*2 li
*3 poly
*4 diff
*5 licon_diff
*6 mcon
*7 licon
*8 FOX

*|NET A 1.2998e-15
*|P (A X 0 0.4750 2.0100) // $llx=0.4750 $lly=2.0100 $urx=0.4750 $ury=2.0100 $lvl=1
*|I (Mmp0:g Mmp0 g X 0 0.4750 3.0150) // $llx=0.4750 $lly=3.0150 $urx=0.4750 $ury=3.0150 $lvl=3
*|I (Mmn0:g Mmn0 g X 0 0.9050 0.9700) // $llx=0.9050 $lly=0.9700 $urx=0.9050 $ury=0.9700 $lvl=3
*|S (A:8 0.4750 3.8950) // $llx=0.4750 $lly=3.8950 $urx=0.4750 $ury=3.8950 $lvl=3
*|S (A:9 0.4650 2.0395) // $llx=0.4650 $lly=2.0395 $urx=0.4650 $ury=2.0395 $lvl=3
*|S (A:10 0.4750 1.8750) // $llx=0.4750 $lly=1.8750 $urx=0.4750 $ury=1.8750 $lvl=3
*|S (A:11 0.6875 1.8750) // $llx=0.6875 $lly=1.8750 $urx=0.6875 $ury=1.8750 $lvl=3
*|S (A:12 0.9050 1.8750) // $llx=0.9050 $lly=1.8750 $urx=0.9050 $ury=1.8750 $lvl=3
*|S (A:13 0.9050 0.4400) // $llx=0.9050 $lly=0.4400 $urx=0.9050 $ury=0.4400 $lvl=3
*|S (A:14 0.9945 1.8750) // $llx=0.9945 $lly=1.8750 $urx=0.9945 $ury=1.8750 $lvl=3
*|S (A:15 1.0250 1.8750) // $llx=1.0250 $lly=1.8750 $urx=1.0250 $ury=1.8750 $lvl=2
*|S (A:16 0.6875 1.8750) // $llx=0.6875 $lly=1.8750 $urx=0.6875 $ury=1.8750 $lvl=2
*|S (A:17 0.4600 1.8750) // $llx=0.4600 $lly=1.8750 $urx=0.4600 $ury=1.8750 $lvl=2
*|S (A:18 0.2400 1.8750) // $llx=0.2400 $lly=1.8750 $urx=0.2400 $ury=1.8750 $lvl=2
*|S (A:19 0.4600 2.6550) // $llx=0.4600 $lly=2.6550 $urx=0.4600 $ury=2.6550 $lvl=1
*|S (A:20 0.4600 1.8750) // $llx=0.4600 $lly=1.8750 $urx=0.4600 $ury=1.8750 $lvl=1
*|S (A:21 0.4600 1.4150) // $llx=0.4600 $lly=1.4150 $urx=0.4600 $ury=1.4150 $lvl=1
CA1 A:21 VSS! 6.63323e-18 $lvl=1
CA2 A:8 VSS! 1.88921e-18 $lvl=3
CA3 A:13 VSS! 1.44809e-18 $lvl=3
CA4 A:16 VSS! 3.69836e-18 $lvl=2
CA5 A:18 VSS! 4.42631e-18 $lvl=2
CA6 A:17 VSS! 2.90266e-18 $lvl=2
CA7 A:11 VSS! 2.48949e-17 $lvl=3
CA8 A VSS! 6.40264e-18 $lvl=1
CA9 A:17 net44:77 6.22052e-18 $lvl1=2 $lvl2=1
CA10 A:16 net44:66 5.84294e-18 $lvl1=2 $lvl2=2
CA11 A:11 net44:66 5.81308e-18 $lvl1=3 $lvl2=2
CA12 A:16 net44:67 4.91932e-18 $lvl1=2 $lvl2=2
CA13 A:16 net44:74 4.87257e-18 $lvl1=2 $lvl2=2
CA14 A net44:66 3.57996e-18 $lvl1=1 $lvl2=2
CA15 A:11 net44:77 3.54547e-18 $lvl1=3 $lvl2=1
CA16 A net44:75 3.10194e-18 $lvl1=1 $lvl2=1
CA17 A:11 Mmp0:d 2.78289e-18 $lvl1=3 $lvl2=4
CA18 A:17 net44:67 2.67789e-18 $lvl1=2 $lvl2=2
CA19 A:11 net44:74 2.62789e-18 $lvl1=3 $lvl2=2
CA20 A:16 net44:62 2.50665e-18 $lvl1=2 $lvl2=2
CA21 A:18 net44:67 2.18755e-18 $lvl1=2 $lvl2=2
CA22 A:16 net44:46 2.16239e-18 $lvl1=2 $lvl2=3
CA23 A:11 Mmn0:d 2.11822e-18 $lvl1=3 $lvl2=4
CA24 A:16 net44:73 2.06887e-18 $lvl1=2 $lvl2=2
CA25 A:17 net44:66 2.04614e-18 $lvl1=2 $lvl2=2
CA26 A:21 net44:79 2.00172e-18 $lvl1=1 $lvl2=1
CA27 A net44:78 1.71667e-18 $lvl1=1 $lvl2=1
CA28 A:13 net44:46 1.66966e-18 $lvl1=3 $lvl2=3
CA29 A:16 net44:81 1.35611e-18 $lvl1=2 $lvl2=1
CA30 A:16 net44:72 1.15266e-18 $lvl1=2 $lvl2=2
CA31 A net44:67 1.10295e-18 $lvl1=1 $lvl2=2
CA32 A:11 net44 9.72738e-19 $lvl1=3 $lvl2=3
CA33 A:11 net44:72 8.91174e-19 $lvl1=3 $lvl2=2
CA34 A net44:81 7.89853e-19 $lvl1=1 $lvl2=1
CA35 A:17 net44:62 7.80459e-19 $lvl1=2 $lvl2=2
CA36 A:11 net44:81 7.54717e-19 $lvl1=3 $lvl2=1
CA37 A:21 net44:76 7.52932e-19 $lvl1=1 $lvl2=1
CA38 A:16 net44:76 7.3841e-19 $lvl1=2 $lvl2=1
CA39 A:21 net44:81 6.69936e-19 $lvl1=1 $lvl2=1
CA40 A:11 net44:73 6.30221e-19 $lvl1=3 $lvl2=2
CA41 A net44:79 6.05165e-19 $lvl1=1 $lvl2=1
CA42 A:11 net44:76 5.20998e-19 $lvl1=3 $lvl2=1
CA43 A:18 net44:66 5.06329e-19 $lvl1=2 $lvl2=2
CA44 A:8 net44:66 4.93579e-19 $lvl1=3 $lvl2=2
CA45 A:18 net44:62 4.47361e-19 $lvl1=2 $lvl2=2
CA46 A:21 net44:70 3.55458e-19 $lvl1=1 $lvl2=2
CA47 A:17 net44:78 3.24235e-19 $lvl1=2 $lvl2=1
CA48 A net44:63 2.97463e-19 $lvl1=1 $lvl2=2
CA49 A:18 net44:78 2.72956e-19 $lvl1=2 $lvl2=1
CA50 A:11 net44:78 2.62988e-19 $lvl1=3 $lvl2=1
CA51 A:21 net44:78 8.73269e-18 $lvl1=1 $lvl2=1
CA52 A:11 net44:67 9.69016e-18 $lvl1=3 $lvl2=2
CA53 A:16 net44:77 1.86621e-17 $lvl1=2 $lvl2=1
CA54 A net44:62 8.19908e-18 $lvl1=1 $lvl2=2
CA55 A:21 net44:77 5.3726e-17 $lvl1=1 $lvl2=1
CA56 A:13 net44:67 1.28556e-16 $lvl1=3 $lvl2=2
CA57 A:11 net44:46 6.87485e-18 $lvl1=3 $lvl2=3
CA58 A:21 net44:67 7.78071e-18 $lvl1=1 $lvl2=2
CA59 A net44:76 4.49103e-17 $lvl1=1 $lvl2=1
CA60 A net44:77 9.32413e-17 $lvl1=1 $lvl2=1
CA61 A:8 net44:62 2.55278e-16 $lvl1=3 $lvl2=2
CA62 A:11 net44:62 8.23404e-18 $lvl1=3 $lvl2=2
CA63 A:13 VSS!:8 4.447e-18 $lvl1=3 $lvl2=2
CA64 A:11 VSS!:16 3.1803e-18 $lvl1=3 $lvl2=2
CA65 A:21 VSS!:18 2.29035e-18 $lvl1=1 $lvl2=1
CA66 A:16 VSS!:16 2.18084e-18 $lvl1=2 $lvl2=2
CA67 A VSS!:18 1.67119e-18 $lvl1=1 $lvl2=1
CA68 A:21 VSS!:19 1.53393e-18 $lvl1=1 $lvl2=1
CA69 A:13 VSS!:9 1.29539e-18 $lvl1=3 $lvl2=2
CA70 A VSS!:19 1.1643e-18 $lvl1=1 $lvl2=1
CA71 A:21 VSS!:9 9.25691e-19 $lvl1=1 $lvl2=2
CA72 A:13 VSS!:16 1.25996e-16 $lvl1=3 $lvl2=2
CA73 A:11 VDD!:1 6.44421e-18 $lvl1=3 $lvl2=2
CA74 A:18 VDD! 5.11185e-18 $lvl1=2 $lvl2=1
CA75 A:18 VDD!:1 4.97318e-18 $lvl1=2 $lvl2=2
CA76 A:17 VDD!:1 3.69304e-18 $lvl1=2 $lvl2=2
CA77 A VDD!:31 2.69112e-18 $lvl1=1 $lvl2=1
CA78 A:16 VDD!:1 2.63356e-18 $lvl1=2 $lvl2=2
CA79 A VDD!:32 2.47949e-18 $lvl1=1 $lvl2=1
CA80 A:17 VDD! 2.43122e-18 $lvl1=2 $lvl2=1
CA81 A:11 VDD!:9 1.67176e-18 $lvl1=3 $lvl2=2
CA82 A:21 VDD!:1 1.4951e-18 $lvl1=1 $lvl2=2
CA83 A:16 VDD! 1.28513e-18 $lvl1=2 $lvl2=1
CA84 A:11 Mmp0:s 1.22806e-18 $lvl1=3 $lvl2=4
CA85 A:16 VDD!:9 8.43534e-19 $lvl1=2 $lvl2=2
CA86 A:8 VDD!:1 2.56495e-16 $lvl1=3 $lvl2=2
CA87 A:8 VDD!:4 7.75017e-18 $lvl1=3 $lvl2=2
CA88 A VDD!:1 2.65454e-17 $lvl1=1 $lvl2=2
CA89 A:21 VDD! 1.25537e-17 $lvl1=1 $lvl2=1
CA90 A VDD! 2.425e-17 $lvl1=1 $lvl2=1
CA91 A:11 VDD! 1.11632e-17 $lvl1=3 $lvl2=1
CA92 A:21 Y:34 8.64131e-19 $lvl1=1 $lvl2=1
CA93 A Y:34 8.21434e-19 $lvl1=1 $lvl2=1
CA94 A Y:40 7.72927e-19 $lvl1=1 $lvl2=1
CA95 A Y:38 7.21645e-19 $lvl1=1 $lvl2=1
CA96 A:13 Y:1 4.47146e-19 $lvl1=3 $lvl2=2
CA97 A Y:33 4.28678e-19 $lvl1=1 $lvl2=1
ReA1 A:19 A 0.310096 $metal1  $L=0.645 $W=0.260000 $SI_W=0.26 $TYPE=10 $DIR=1 $LLX=0.330000 $LLY=2.010000 $URX=0.590000 $URY=2.655000 $lvl=1
ReA2 A A:20 0.064904 $metal1  $L=0.135 $W=0.260000 $SI_W=0.26 $TYPE=10 $DIR=1 $LLX=0.345000 $LLY=1.875000 $URX=0.605000 $URY=2.010000 $lvl=1
ReA3 A:20 A:21 0.221154 $metal1  $L=0.46 $W=0.260000 $SI_W=0.26 $TYPE=10 $DIR=1 $LLX=0.330000 $LLY=1.415000 $URX=0.590000 $URY=1.875000 $lvl=1
RfA4 A:15 A:16 25.411764 $li  $L=0.3375 $W=0.170000 $SI_W=0.17 $TYPE=10 $DIR=0 $LLX=0.687500 $LLY=1.790000 $URX=1.025000 $URY=1.960000 $lvl=2
RfA5 A:16 A:17 17.129412 $li  $L=0.2275 $W=0.170000 $SI_W=0.17 $TYPE=10 $DIR=0 $LLX=0.460000 $LLY=1.790000 $URX=0.687500 $URY=1.960000 $lvl=2
RfA6 A:17 A:18 16.564707 $li  $L=0.22 $W=0.170000 $SI_W=0.17 $TYPE=10 $DIR=0 $LLX=0.240000 $LLY=1.790000 $URX=0.460000 $URY=1.960000 $lvl=2
RgA7 A:8 Mmp0:g 282.773346 $poly  $L=0.88 $W=0.150000 $SI_W=0.15 $TYPE=10 $DIR=1 $LLX=0.400000 $LLY=3.015000 $URX=0.550000 $URY=3.895000 $lvl=3
RgA8 Mmp0:g A:9 313.370880 $poly  $L=0.975 $W=0.150000 $SI_W=0.15 $TYPE=10 $DIR=1 $LLX=0.400000 $LLY=2.039500 $URX=0.550000 $URY=3.014500 $lvl=3
RgA9 A:9 A:10 46.642902 $poly  $L=0.16425 $W=0.170000 $SI_W=0.17 $TYPE=10 $DIR=1 $LLX=0.380000 $LLY=1.875500 $URX=0.550000 $URY=2.039500 $lvl=3
RgA10 A:10 A:11 31.001364 $poly  $L=0.21225 $W=0.330000 $SI_W=0.33 $TYPE=10 $DIR=0 $LLX=0.475000 $LLY=1.710000 $URX=0.687000 $URY=2.040000 $lvl=3
RgA11 A:11 A:12 31.804699 $poly  $L=0.21775 $W=0.330000 $SI_W=0.33 $TYPE=10 $DIR=0 $LLX=0.687000 $LLY=1.710000 $URX=0.905000 $URY=2.040000 $lvl=3
RgA12 A:12 Mmn0:g 261.923187 $poly  $L=0.90525 $W=0.150000 $SI_W=0.15 $TYPE=10 $DIR=1 $LLX=0.830000 $LLY=0.970000 $URX=0.980000 $URY=1.875000 $lvl=3
RgA13 Mmn0:g A:13 170.306671 $poly  $L=0.53 $W=0.150000 $SI_W=0.15 $TYPE=10 $DIR=1 $LLX=0.830000 $LLY=0.440000 $URX=0.980000 $URY=0.970000 $lvl=3
RgA14 A:12 A:14 13.035909 $poly  $L=0.08925 $W=0.330000 $SI_W=0.33 $TYPE=10 $DIR=0 $LLX=0.905000 $LLY=1.710000 $URX=0.994000 $URY=2.040000 $lvl=3
RjA15 A:17 A:20 152.000000 $mcon  $L=0.17 $W=0.17 $A=0.0289 $VC=0 $SAVL=0 $SAVC=0 $SI_A=0.0289 $COVER_DIR=0 $LLX=0.000000 $LLY=0.000000 $URX=0.170000 $URY=0.170000 $lvl=6
RiA16 A:11 A:16 7.500000 $licon  $A=0.0578 $VC=0 $SAVL=0 $SAVC=0 $SI_A=0.0578 $COVER_DIR=0 $LLX=0.000000 $LLY=0.000000 $URX=-0.057800 $URY=-2.000000 $lvl=7
*
*|NET VSS! 2.4584e-15
*|P (VSS! X 0 2.4150 0.0050) // $llx=2.4150 $lly=0.0050 $urx=2.4150 $ury=0.0050 $lvl=1
*|I (Mmn1:s Mmn1 s X 0 1.2595 0.9700) // $llx=1.2595 $lly=0.9700 $urx=1.2595 $ury=0.9700 $lvl=4
*|I (Mmn1:b Mmn1 b X 0 1.3350 0.9700) // $llx=1.3350 $lly=0.9700 $urx=1.3350 $ury=0.9700 $lvl=8
*|I (Mmn1@1:s Mmn1@1 s X 0 1.8405 0.9700) // $llx=1.8405 $lly=0.9700 $urx=1.8405 $ury=0.9700 $lvl=4
*|I (Mmn1@1:b Mmn1@1 b X 0 1.7650 0.9700) // $llx=1.7650 $lly=0.9700 $urx=1.7650 $ury=0.9700 $lvl=8
*|I (Mmn1@2:s Mmn1@2 s X 0 2.1195 0.9700) // $llx=2.1195 $lly=0.9700 $urx=2.1195 $ury=0.9700 $lvl=4
*|I (Mmn1@2:b Mmn1@2 b X 0 2.1950 0.9700) // $llx=2.1950 $lly=0.9700 $urx=2.1950 $ury=0.9700 $lvl=8
*|I (Mmn1@3:s Mmn1@3 s X 0 2.7005 0.9700) // $llx=2.7005 $lly=0.9700 $urx=2.7005 $ury=0.9700 $lvl=4
*|I (Mmn1@3:b Mmn1@3 b X 0 2.6250 0.9700) // $llx=2.6250 $lly=0.9700 $urx=2.6250 $ury=0.9700 $lvl=8
*|I (Mmn0:s Mmn0 s X 0 0.9805 0.9700) // $llx=0.9805 $lly=0.9700 $urx=0.9805 $ury=0.9700 $lvl=4
*|I (Mmn0:b Mmn0 b X 0 0.9050 0.9700) // $llx=0.9050 $lly=0.9700 $urx=0.9050 $ury=0.9700 $lvl=8
*|S (VSS!:1 2.8400 1.3500) // $llx=2.8400 $lly=1.3500 $urx=2.8400 $ury=1.3500 $lvl=2
*|S (VSS!:3 2.8400 0.9700) // $llx=2.8400 $lly=0.9700 $urx=2.8400 $ury=0.9700 $lvl=2
*|S (VSS!:4 2.7600 0.0000) // $llx=2.7600 $lly=0.0000 $urx=2.7600 $ury=0.0000 $lvl=2
*|S (VSS!:5 2.7600 0.0000) // $llx=2.7600 $lly=0.0000 $urx=2.7600 $ury=0.0000 $lvl=4
*|S (VSS!:7 1.9800 0.0000) // $llx=1.9800 $lly=0.0000 $urx=1.9800 $ury=0.0000 $lvl=2
*|S (VSS!:8 1.1200 0.0000) // $llx=1.1200 $lly=0.0000 $urx=1.1200 $ury=0.0000 $lvl=2
*|S (VSS!:9 0.0000 0.0000) // $llx=0.0000 $lly=0.0000 $urx=0.0000 $ury=0.0000 $lvl=2
*|S (VSS!:10 5.5195 0.0000) // $llx=5.5195 $lly=0.0000 $urx=5.5195 $ury=0.0000 $lvl=2
*|S (VSS!:12 1.9800 0.9700) // $llx=1.9800 $lly=0.9700 $urx=1.9800 $ury=0.9700 $lvl=2
*|S (VSS!:13 1.9800 1.3500) // $llx=1.9800 $lly=1.3500 $urx=1.9800 $ury=1.3500 $lvl=2
*|S (VSS!:15 1.1200 0.9700) // $llx=1.1200 $lly=0.9700 $urx=1.1200 $ury=0.9700 $lvl=2
*|S (VSS!:16 1.1200 1.3500) // $llx=1.1200 $lly=1.3500 $urx=1.1200 $ury=1.3500 $lvl=2
*|S (VSS!:17 5.5200 0.0000) // $llx=5.5200 $lly=0.0000 $urx=5.5200 $ury=0.0000 $lvl=1
*|S (VSS!:18 2.7600 0.0000) // $llx=2.7600 $lly=0.0000 $urx=2.7600 $ury=0.0000 $lvl=1
*|S (VSS!:19 0.0000 0.0000) // $llx=0.0000 $lly=0.0000 $urx=0.0000 $ury=0.0000 $lvl=1
ReD111 VSS!:17 VSS!:18 0.862500 $metal1  $L=2.76 $W=0.400000 $SI_W=0.4 $TYPE=10 $DIR=0 $LLX=2.760000 $LLY=-0.199500 $URX=5.520000 $URY=0.200000 $lvl=1
ReD112 VSS!:18 VSS! 0.107813 $metal1  $L=0.345 $W=0.400000 $SI_W=0.4 $TYPE=10 $DIR=0 $LLX=2.415000 $LLY=-0.199500 $URX=2.760000 $URY=0.200000 $lvl=1
ReD113 VSS! VSS!:19 0.754687 $metal1  $L=2.415 $W=0.400000 $SI_W=0.4 $TYPE=10 $DIR=0 $LLX=0.000000 $LLY=-0.199500 $URX=2.415000 $URY=0.200000 $lvl=1
RfD114 VSS!:1 VSS!:3 28.611765 $li  $L=0.38 $W=0.170000 $SI_W=0.17 $TYPE=10 $DIR=1 $LLX=2.755000 $LLY=0.970000 $URX=2.925000 $URY=1.350000 $lvl=2
RfD115 VSS!:3 VSS!:4 70.023529 $li  $L=0.97 $W=0.170000 $SI_W=0.17 $TYPE=10 $DIR=1 $LLX=2.755000 $LLY=0.000000 $URX=2.925000 $URY=0.970000 $lvl=2
RfD116 VSS!:4 VSS!:7 39.923199 $li  $L=0.77975 $W=0.250000 $SI_W=0.25 $TYPE=10 $DIR=0 $LLX=1.980000 $LLY=-0.124500 $URX=2.760000 $URY=0.125000 $lvl=2
RfD117 VSS!:7 VSS!:8 44.031998 $li  $L=0.86 $W=0.250000 $SI_W=0.25 $TYPE=10 $DIR=0 $LLX=1.120000 $LLY=-0.124500 $URX=1.980000 $URY=0.125000 $lvl=2
RfD118 VSS!:8 VSS!:9 57.356800 $li  $L=1.12025 $W=0.250000 $SI_W=0.25 $TYPE=10 $DIR=0 $LLX=0.000000 $LLY=-0.124500 $URX=1.120000 $URY=0.125000 $lvl=2
RfD119 VSS!:4 VSS!:10 141.286407 $li  $L=2.7595 $W=0.250000 $SI_W=0.25 $TYPE=10 $DIR=0 $LLX=2.759500 $LLY=-0.124500 $URX=5.519000 $URY=0.125000 $lvl=2
RfD120 VSS!:7 VSS!:12 70.010727 $li  $L=0.96975 $W=0.170000 $SI_W=0.17 $TYPE=10 $DIR=1 $LLX=1.895000 $LLY=0.000000 $URX=2.065000 $URY=0.970000 $lvl=2
RfD121 VSS!:12 VSS!:13 28.611765 $li  $L=0.38 $W=0.170000 $SI_W=0.17 $TYPE=10 $DIR=1 $LLX=1.895000 $LLY=0.970000 $URX=2.065000 $URY=1.350000 $lvl=2
RfD122 VSS!:8 VSS!:15 70.010727 $li  $L=0.96975 $W=0.170000 $SI_W=0.17 $TYPE=10 $DIR=1 $LLX=1.035000 $LLY=0.000000 $URX=1.205000 $URY=0.970000 $lvl=2
RfD123 VSS!:15 VSS!:16 28.611765 $li  $L=0.38 $W=0.170000 $SI_W=0.17 $TYPE=10 $DIR=1 $LLX=1.035000 $LLY=0.970000 $URX=1.205000 $URY=1.350000 $lvl=2
RhD124 Mmn1@3:s VSS!:3 7.500000 $licon_diff  $A=0.0578 $VC=0 $SAVL=0 $SAVC=0 $SI_A=0.0578 $COVER_DIR=0 $LLX=0.000000 $LLY=0.000000 $URX=-0.057800 $URY=-2.000000 $lvl=5
RhD125 Mmn1@1:s VSS!:12 7.500000 $licon_diff  $A=0.0578 $VC=0 $SAVL=0 $SAVC=0 $SI_A=0.0578 $COVER_DIR=0 $LLX=0.000000 $LLY=0.000000 $URX=-0.057800 $URY=-2.000000 $lvl=5
RhD126 Mmn1:s VSS!:15 7.500000 $licon_diff  $A=0.0578 $VC=0 $SAVL=0 $SAVC=0 $SI_A=0.0578 $COVER_DIR=0 $LLX=0.000000 $LLY=0.000000 $URX=-0.057800 $URY=-2.000000 $lvl=5
Rh_3_D127 VSS!:5 VSS!:4 1.363636 $licon_diff  $A=0.3179 $VC=0 $SAVL=0 $SAVC=0 $SI_A=0.3179 $COVER_DIR=0 $LLX=0.000000 $LLY=0.000000 $URX=-0.317900 $URY=-11.000000 $lvl=5
RjD128 VSS!:4 VSS!:18 13.818182 $mcon  $A=0.3179 $VC=0 $SAVL=0 $SAVC=0 $SI_A=0.3179 $COVER_DIR=0 $LLX=0.000000 $LLY=0.000000 $URX=-0.317900 $URY=-11.000000 $lvl=6
RmwD129 Mmn1:b VSS! 0.001000 $FOX $W=1000000 $SI_W=1000000 $TYPE=1 $DIR=0
RmwD130 Mmn1@1:b VSS! 0.001000 $FOX $W=1000000 $SI_W=1000000 $TYPE=1 $DIR=0
RmwD131 Mmn1@2:s Mmn1@1:s 0.001000 $diff $W=1000000 $SI_W=1000000 $TYPE=1 $DIR=0
RmwD132 Mmn1@2:b VSS! 0.001000 $FOX $W=1000000 $SI_W=1000000 $TYPE=1 $DIR=0
RmwD133 Mmn1@3:b VSS! 0.001000 $FOX $W=1000000 $SI_W=1000000 $TYPE=1 $DIR=0
RmwD134 Mmn0:s Mmn1:s 0.001000 $diff $W=1000000 $SI_W=1000000 $TYPE=1 $DIR=0
RmwD135 Mmn0:b VSS! 0.001000 $FOX $W=1000000 $SI_W=1000000 $TYPE=1 $DIR=0
*
*|NET VDD! 4.34618e-15
*|P (VDD! X 0 2.4150 4.1450) // $llx=2.4150 $lly=4.1450 $urx=2.4150 $ury=4.1450 $lvl=1
*|I (Mmp1:s Mmp1 s X 0 1.6895 3.2150) // $llx=1.6895 $lly=3.2150 $urx=1.6895 $ury=3.2150 $lvl=4
*|I (Mmp1:b Mmp1 b X 0 1.7650 3.2150) // $llx=1.7650 $lly=3.2150 $urx=1.7650 $ury=3.2150 $lvl=8
*|I (Mmp1@1:s Mmp1@1 s X 0 2.2705 3.2150) // $llx=2.2705 $lly=3.2150 $urx=2.2705 $ury=3.2150 $lvl=4
*|I (Mmp1@1:b Mmp1@1 b X 0 2.1950 3.2150) // $llx=2.1950 $lly=3.2150 $urx=2.1950 $ury=3.2150 $lvl=8
*|I (Mmp1@2:s Mmp1@2 s X 0 2.5495 3.2150) // $llx=2.5495 $lly=3.2150 $urx=2.5495 $ury=3.2150 $lvl=4
*|I (Mmp1@2:b Mmp1@2 b X 0 2.6250 3.2150) // $llx=2.6250 $lly=3.2150 $urx=2.6250 $ury=3.2150 $lvl=8
*|I (Mmp1@3:s Mmp1@3 s X 0 3.1305 3.2150) // $llx=3.1305 $lly=3.2150 $urx=3.1305 $ury=3.2150 $lvl=4
*|I (Mmp1@3:b Mmp1@3 b X 0 3.0550 3.2150) // $llx=3.0550 $lly=3.2150 $urx=3.0550 $ury=3.2150 $lvl=8
*|I (Mmp1@4:s Mmp1@4 s X 0 3.4095 3.2150) // $llx=3.4095 $lly=3.2150 $urx=3.4095 $ury=3.2150 $lvl=4
*|I (Mmp1@4:b Mmp1@4 b X 0 3.4850 3.2150) // $llx=3.4850 $lly=3.2150 $urx=3.4850 $ury=3.2150 $lvl=8
*|I (Mmp1@5:s Mmp1@5 s X 0 3.9905 3.2150) // $llx=3.9905 $lly=3.2150 $urx=3.9905 $ury=3.2150 $lvl=4
*|I (Mmp1@5:b Mmp1@5 b X 0 3.9150 3.2150) // $llx=3.9150 $lly=3.2150 $urx=3.9150 $ury=3.2150 $lvl=8
*|I (Mmp1@6:s Mmp1@6 s X 0 4.2695 3.2150) // $llx=4.2695 $lly=3.2150 $urx=4.2695 $ury=3.2150 $lvl=4
*|I (Mmp1@6:b Mmp1@6 b X 0 4.3450 3.2150) // $llx=4.3450 $lly=3.2150 $urx=4.3450 $ury=3.2150 $lvl=8
*|I (Mmp1@7:s Mmp1@7 s X 0 4.8505 3.2150) // $llx=4.8505 $lly=3.2150 $urx=4.8505 $ury=3.2150 $lvl=4
*|I (Mmp1@7:b Mmp1@7 b X 0 4.7750 3.2150) // $llx=4.7750 $lly=3.2150 $urx=4.7750 $ury=3.2150 $lvl=8
*|I (Mmp0:s Mmp0 s X 0 0.3995 3.0150) // $llx=0.3995 $lly=3.0150 $urx=0.3995 $ury=3.0150 $lvl=4
*|I (Mmp0:b Mmp0 b X 0 0.4750 3.0150) // $llx=0.4750 $lly=3.0150 $urx=0.4750 $ury=3.0150 $lvl=8
*|S (VDD!:1 0.2600 2.2850) // $llx=0.2600 $lly=2.2850 $urx=0.2600 $ury=2.2850 $lvl=2
*|S (VDD!:3 0.2600 3.0150) // $llx=0.2600 $lly=3.0150 $urx=0.2600 $ury=3.0150 $lvl=2
*|S (VDD!:4 0.2600 4.1400) // $llx=0.2600 $lly=4.1400 $urx=0.2600 $ury=4.1400 $lvl=2
*|S (VDD!:5 0.0000 4.1400) // $llx=0.0000 $lly=4.1400 $urx=0.0000 $ury=4.1400 $lvl=2
*|S (VDD!:6 1.5500 4.1400) // $llx=1.5500 $lly=4.1400 $urx=1.5500 $ury=4.1400 $lvl=2
*|S (VDD!:8 1.5500 3.2150) // $llx=1.5500 $lly=3.2150 $urx=1.5500 $ury=3.2150 $lvl=2
*|S (VDD!:9 1.5500 2.6850) // $llx=1.5500 $lly=2.6850 $urx=1.5500 $ury=2.6850 $lvl=2
*|S (VDD!:10 2.4100 4.1400) // $llx=2.4100 $lly=4.1400 $urx=2.4100 $ury=4.1400 $lvl=2
*|S (VDD!:12 2.4100 3.2150) // $llx=2.4100 $lly=3.2150 $urx=2.4100 $ury=3.2150 $lvl=2
*|S (VDD!:13 2.4100 2.6850) // $llx=2.4100 $lly=2.6850 $urx=2.4100 $ury=2.6850 $lvl=2
*|S (VDD!:14 2.7600 4.1400) // $llx=2.7600 $lly=4.1400 $urx=2.7600 $ury=4.1400 $lvl=2
*|S (VDD!:15 2.7600 4.1400) // $llx=2.7600 $lly=4.1400 $urx=2.7600 $ury=4.1400 $lvl=4
*|S (VDD!:17 3.2700 4.1400) // $llx=3.2700 $lly=4.1400 $urx=3.2700 $ury=4.1400 $lvl=2
*|S (VDD!:19 3.2700 3.2150) // $llx=3.2700 $lly=3.2150 $urx=3.2700 $ury=3.2150 $lvl=2
*|S (VDD!:20 3.2700 2.6850) // $llx=3.2700 $lly=2.6850 $urx=3.2700 $ury=2.6850 $lvl=2
*|S (VDD!:21 4.1300 4.1400) // $llx=4.1300 $lly=4.1400 $urx=4.1300 $ury=4.1400 $lvl=2
*|S (VDD!:23 4.1300 3.2150) // $llx=4.1300 $lly=3.2150 $urx=4.1300 $ury=3.2150 $lvl=2
*|S (VDD!:24 4.1300 2.6850) // $llx=4.1300 $lly=2.6850 $urx=4.1300 $ury=2.6850 $lvl=2
*|S (VDD!:25 4.9900 4.1400) // $llx=4.9900 $lly=4.1400 $urx=4.9900 $ury=4.1400 $lvl=2
*|S (VDD!:27 4.9900 3.2150) // $llx=4.9900 $lly=3.2150 $urx=4.9900 $ury=3.2150 $lvl=2
*|S (VDD!:28 4.9900 2.6850) // $llx=4.9900 $lly=2.6850 $urx=4.9900 $ury=2.6850 $lvl=2
*|S (VDD!:29 5.5195 4.1400) // $llx=5.5195 $lly=4.1400 $urx=5.5195 $ury=4.1400 $lvl=2
*|S (VDD!:30 5.5200 4.1400) // $llx=5.5200 $lly=4.1400 $urx=5.5200 $ury=4.1400 $lvl=1
*|S (VDD!:31 2.7600 4.1400) // $llx=2.7600 $lly=4.1400 $urx=2.7600 $ury=4.1400 $lvl=1
*|S (VDD!:32 0.0000 4.1400) // $llx=0.0000 $lly=4.1400 $urx=0.0000 $ury=4.1400 $lvl=1
CC1 Mmp0:s VSS! 1.97076e-18 $lvl=4
CC2 Mmp1@7:s VSS! 2.37231e-18 $lvl=4
CC3 Mmp1@5:s VSS! 1.26073e-18 $lvl=4
CC4 Mmp1@3:s VSS! 1.32233e-18 $lvl=4
CC5 Mmp1@1:s VSS! 1.06757e-18 $lvl=4
CC6 Mmp1:s VSS! 1.57012e-18 $lvl=4
CC7 VDD!:31 VSS! 1.06077e-17 $lvl=1
CC8 VDD!:30 VSS! 6.06401e-18 $lvl=1
CC9 VDD!:32 VSS! 6.32581e-18 $lvl=1
CC10 VDD!:1 VSS! 8.40775e-18 $lvl=2
CC11 VDD!:9 VSS! 4.54942e-18 $lvl=2
CC12 VDD!:13 VSS! 3.97404e-18 $lvl=2
CC13 VDD!:20 VSS! 3.49755e-18 $lvl=2
CC14 VDD!:24 VSS! 2.71891e-18 $lvl=2
CC15 VDD!:28 VSS! 6.62257e-18 $lvl=2
CC16 VDD!:29 VSS! 2.62676e-18 $lvl=2
CC17 VDD!:25 VSS! 2.17725e-18 $lvl=2
CC18 VDD!:21 VSS! 1.81542e-18 $lvl=2
CC19 VDD!:10 VSS! 2.18124e-18 $lvl=2
CC20 VDD!:6 VSS! 1.77182e-18 $lvl=2
CC21 VDD!:4 VSS! 3.68612e-18 $lvl=2
CC22 VDD!:5 VSS! 2.46418e-18 $lvl=2
CC23 VDD!:15 VSS! 1.3345e-18 $lvl=4
CC24 VDD!:14 VSS! 2.04079e-18 $lvl=2
CC25 VDD! VSS! 2.04616e-18 $lvl=1
CC26 VDD! net44:75 9.30001e-18 $lvl1=1 $lvl2=1
CC27 VDD!:21 net44:47 8.11334e-18 $lvl1=2 $lvl2=3
CC28 VDD! net44:79 7.91851e-18 $lvl1=1 $lvl2=1
CC29 VDD!:31 net44:76 7.88893e-18 $lvl1=1 $lvl2=1
CC30 VDD!:1 net44:76 7.77839e-18 $lvl1=2 $lvl2=1
CC31 VDD!:10 Mmp1@2:g 7.73775e-18 $lvl1=2 $lvl2=3
CC32 VDD!:10 net44:49 7.70341e-18 $lvl1=2 $lvl2=3
CC33 VDD!:10 Mmp1@3:g 7.52637e-18 $lvl1=2 $lvl2=3
CC34 VDD!:1 net44:75 7.52104e-18 $lvl1=2 $lvl2=1
CC35 VDD!:1 net44:66 6.97926e-18 $lvl1=2 $lvl2=2
CC36 VDD!:6 net44:61 6.66235e-18 $lvl1=2 $lvl2=3
CC37 VDD! net44:78 6.53538e-18 $lvl1=1 $lvl2=1
CC38 VDD!:6 net44:62 6.28157e-18 $lvl1=2 $lvl2=2
CC39 VDD!:31 net44:62 6.01391e-18 $lvl1=1 $lvl2=2
CC40 VDD!:9 net44:75 5.76598e-18 $lvl1=2 $lvl2=1
CC41 VDD!:10 Mmp1@1:g 5.11316e-18 $lvl1=2 $lvl2=3
CC42 VDD!:21 Mmp1@5:g 4.9897e-18 $lvl1=2 $lvl2=3
CC43 VDD! net44:81 4.90497e-18 $lvl1=1 $lvl2=1
CC44 VDD!:21 Mmp1@7:g 4.57431e-18 $lvl1=2 $lvl2=3
CC45 VDD!:32 net44:75 4.16251e-18 $lvl1=1 $lvl2=1
CC46 VDD!:25 Mmp1@7:g 3.57565e-18 $lvl1=2 $lvl2=3
CC47 VDD!:9 Mmp0:d 3.28219e-18 $lvl1=2 $lvl2=4
CC48 VDD!:10 Mmp1@5:g 3.21634e-18 $lvl1=2 $lvl2=3
CC49 VDD!:9 net44:77 2.72829e-18 $lvl1=2 $lvl2=1
CC50 Mmp1:s net44:62 2.65531e-18 $lvl1=4 $lvl2=2
CC51 VDD!:31 net44:77 2.54372e-18 $lvl1=1 $lvl2=1
CC52 VDD!:20 net44:46 2.47703e-18 $lvl1=2 $lvl2=3
CC53 VDD!:4 net44:75 2.28664e-18 $lvl1=2 $lvl2=1
CC54 VDD!:32 net44:76 2.23941e-18 $lvl1=1 $lvl2=1
CC55 VDD!:9 net44:46 2.19554e-18 $lvl1=2 $lvl2=3
CC56 VDD!:28 net44:72 2.12216e-18 $lvl1=2 $lvl2=2
CC57 VDD!:1 net44:63 2.09515e-18 $lvl1=2 $lvl2=2
CC58 VDD!:4 Mmp0:d 2.00308e-18 $lvl1=2 $lvl2=4
CC59 VDD!:13 net44:46 1.99204e-18 $lvl1=2 $lvl2=3
CC60 VDD!:6 Mmp1@1:g 1.95069e-18 $lvl1=2 $lvl2=3
CC61 VDD!:9 net44:72 1.90805e-18 $lvl1=2 $lvl2=2
CC62 VDD!:15 net44:62 1.9028e-18 $lvl1=4 $lvl2=2
CC63 VDD!:14 net44:75 1.89512e-18 $lvl1=2 $lvl2=1
CC64 VDD!:28 net44:46 1.81444e-18 $lvl1=2 $lvl2=3
CC65 VDD!:14 net44:62 1.76857e-18 $lvl1=2 $lvl2=2
CC66 VDD!:6 net44:75 1.73794e-18 $lvl1=2 $lvl2=1
CC67 Mmp0:s net44:62 1.63376e-18 $lvl1=4 $lvl2=2
CC68 VDD!:1 net44:77 1.62261e-18 $lvl1=2 $lvl2=1
CC69 VDD!:1 Mmp0:d 1.4936e-18 $lvl1=2 $lvl2=4
CC70 VDD!:24 net44:72 1.46228e-18 $lvl1=2 $lvl2=2
CC71 VDD!:9 Mmp1@1:g 1.25675e-18 $lvl1=2 $lvl2=3
CC72 VDD!:13 net44:72 1.25115e-18 $lvl1=2 $lvl2=2
CC73 VDD!:20 net44:72 1.1544e-18 $lvl1=2 $lvl2=2
CC74 VDD!:24 net44:46 1.1485e-18 $lvl1=2 $lvl2=3
CC75 VDD!:1 net44:67 1.13259e-18 $lvl1=2 $lvl2=2
CC76 VDD!:31 net44:72 1.08464e-18 $lvl1=1 $lvl2=2
CC77 VDD!:20 Mmp1@5:g 1.01238e-18 $lvl1=2 $lvl2=3
CC78 VDD!:9 net44:66 9.66213e-19 $lvl1=2 $lvl2=2
CC79 VDD!:32 net44:62 9.34249e-19 $lvl1=1 $lvl2=2
CC80 VDD!:13 Mmp1@3:g 9.11282e-19 $lvl1=2 $lvl2=3
CC81 VDD!:20 Mmp1@2:g 9.10831e-19 $lvl1=2 $lvl2=3
CC82 VDD!:28 net44:47 7.82793e-19 $lvl1=2 $lvl2=3
CC83 VDD! net44:66 7.73313e-19 $lvl1=1 $lvl2=2
CC84 VDD!:6 Mmp0:d 7.29207e-19 $lvl1=2 $lvl2=4
CC85 VDD!:24 Mmp1@7:g 7.25078e-19 $lvl1=2 $lvl2=3
CC86 VDD!:9 net44:81 7.01218e-19 $lvl1=2 $lvl2=1
CC87 VDD!:9 net44:73 6.9018e-19 $lvl1=2 $lvl2=2
CC88 VDD!:31 net44:81 6.58677e-19 $lvl1=1 $lvl2=1
CC89 VDD!:32 net44:77 6.48682e-19 $lvl1=1 $lvl2=1
CC90 VDD!:24 net44:49 6.48565e-19 $lvl1=2 $lvl2=3
CC91 VDD!:6 net44:76 6.44055e-19 $lvl1=2 $lvl2=1
CC92 VDD! net44:76 1.27593e-17 $lvl1=1 $lvl2=1
CC93 VDD!:9 net44:61 1.95898e-16 $lvl1=2 $lvl2=3
CC94 VDD! net44:77 1.35069e-17 $lvl1=1 $lvl2=1
CC95 VDD!:20 Mmp1@3:g 1.86983e-16 $lvl1=2 $lvl2=3
CC96 VDD!:9 net44:76 1.19614e-17 $lvl1=2 $lvl2=1
CC97 VDD!:28 Mmp1@7:g 1.94958e-16 $lvl1=2 $lvl2=3
CC98 VDD! net44:72 1.41e-17 $lvl1=1 $lvl2=2
CC99 VDD! net44:67 1.0671e-17 $lvl1=1 $lvl2=2
CC100 VDD! net44:62 3.14308e-17 $lvl1=1 $lvl2=2
CC101 VDD!:4 net44:62 2.33331e-17 $lvl1=2 $lvl2=2
CC102 VDD!:13 Mmp1@2:g 1.89391e-16 $lvl1=2 $lvl2=3
CC103 VDD!:1 net44:62 9.36628e-17 $lvl1=2 $lvl2=2
CC104 VDD!:13 Mmp1@1:g 1.84411e-16 $lvl1=2 $lvl2=3
CC105 VDD! net44:46 2.98074e-17 $lvl1=1 $lvl2=3
CC106 VDD!:24 Mmp1@5:g 1.82594e-16 $lvl1=2 $lvl2=3
CC107 VDD!:24 net44:47 1.91078e-16 $lvl1=2 $lvl2=3
CC108 VDD!:20 net44:49 1.88302e-16 $lvl1=2 $lvl2=3
CC109 VDD!:9 net44:62 2.95243e-17 $lvl1=2 $lvl2=2
CC110 VDD!:31 net44:75 3.63352e-17 $lvl1=1 $lvl2=1
CC111 VDD!:31 VSS!:18 3.79198e-18 $lvl1=1 $lvl2=1
CC112 VDD! VSS!:13 8.99358e-19 $lvl1=1 $lvl2=2
CC113 VDD! VSS!:3 7.73432e-19 $lvl1=1 $lvl2=2
CC114 VDD!:1 VSS!:19 7.55047e-19 $lvl1=2 $lvl2=1
CC115 VDD!:30 VSS!:10 7.25594e-19 $lvl1=1 $lvl2=2
CC116 VDD!:28 VSS!:17 6.47628e-19 $lvl1=2 $lvl2=1
CC117 VDD!:30 VSS!:17 5.77015e-19 $lvl1=1 $lvl2=1
CC118 VDD!:21 VSS!:18 5.75598e-19 $lvl1=2 $lvl2=1
CC119 VDD! VSS!:18 1.62992e-16 $lvl1=1 $lvl2=1
CC120 VDD! VSS!:17 3.50597e-17 $lvl1=1 $lvl2=1
CC121 VDD! VSS!:10 5.21145e-17 $lvl1=1 $lvl2=2
CC122 VDD! VSS!:19 3.79263e-17 $lvl1=1 $lvl2=1
CC123 VDD! VSS!:7 7.08585e-17 $lvl1=1 $lvl2=2
CC124 VDD! VSS!:8 2.43297e-17 $lvl1=1 $lvl2=2
CC125 VDD! VSS!:9 2.92435e-17 $lvl1=1 $lvl2=2
CC126 VDD! VSS!:4 1.57209e-17 $lvl1=1 $lvl2=2
ReC68 VDD!:30 VDD!:31 0.862500 $metal1  $L=2.76 $W=0.400000 $SI_W=0.4 $TYPE=10 $DIR=0 $LLX=2.760000 $LLY=3.940000 $URX=5.520000 $URY=4.340000 $lvl=1
ReC69 VDD!:31 VDD! 0.107813 $metal1  $L=0.345 $W=0.400000 $SI_W=0.4 $TYPE=10 $DIR=0 $LLX=2.415000 $LLY=3.940000 $URX=2.760000 $URY=4.340000 $lvl=1
ReC70 VDD! VDD!:32 0.754687 $metal1  $L=2.415 $W=0.400000 $SI_W=0.4 $TYPE=10 $DIR=0 $LLX=0.000000 $LLY=3.940000 $URX=2.415000 $URY=4.340000 $lvl=1
RfC71 VDD!:1 VDD!:3 54.964703 $li  $L=0.73 $W=0.170000 $SI_W=0.17 $TYPE=10 $DIR=1 $LLX=0.175000 $LLY=2.285000 $URX=0.345000 $URY=3.015000 $lvl=2
RfC72 VDD!:3 VDD!:4 81.706917 $li  $L=1.12525 $W=0.170000 $SI_W=0.17 $TYPE=10 $DIR=1 $LLX=0.175000 $LLY=3.015000 $URX=0.345000 $URY=4.140000 $lvl=2
RfC73 VDD!:4 VDD!:5 13.324800 $li  $L=0.26025 $W=0.250000 $SI_W=0.25 $TYPE=10 $DIR=0 $LLX=0.000000 $LLY=4.015000 $URX=0.260000 $URY=4.265000 $lvl=2
RfC74 VDD!:4 VDD!:6 66.047997 $li  $L=1.29 $W=0.250000 $SI_W=0.25 $TYPE=10 $DIR=0 $LLX=0.260000 $LLY=4.015000 $URX=1.550000 $URY=4.265000 $lvl=2
RfC75 VDD!:6 VDD!:8 66.648094 $li  $L=0.92525 $W=0.170000 $SI_W=0.17 $TYPE=10 $DIR=1 $LLX=1.465000 $LLY=3.215000 $URX=1.635000 $URY=4.140000 $lvl=2
RfC76 VDD!:8 VDD!:9 39.905884 $li  $L=0.53 $W=0.170000 $SI_W=0.17 $TYPE=10 $DIR=1 $LLX=1.465000 $LLY=2.685000 $URX=1.635000 $URY=3.215000 $lvl=2
RfC77 VDD!:6 VDD!:10 44.031998 $li  $L=0.86 $W=0.250000 $SI_W=0.25 $TYPE=10 $DIR=0 $LLX=1.550000 $LLY=4.015000 $URX=2.410000 $URY=4.265000 $lvl=2
RfC78 VDD!:10 VDD!:12 66.648094 $li  $L=0.92525 $W=0.170000 $SI_W=0.17 $TYPE=10 $DIR=1 $LLX=2.325000 $LLY=3.215000 $URX=2.495000 $URY=4.140000 $lvl=2
RfC79 VDD!:12 VDD!:13 39.905884 $li  $L=0.53 $W=0.170000 $SI_W=0.17 $TYPE=10 $DIR=1 $LLX=2.325000 $LLY=2.685000 $URX=2.495000 $URY=3.215000 $lvl=2
RfC80 VDD!:10 VDD!:14 17.907200 $li  $L=0.34975 $W=0.250000 $SI_W=0.25 $TYPE=10 $DIR=0 $LLX=2.410000 $LLY=4.015000 $URX=2.760000 $URY=4.265000 $lvl=2
RfC81 VDD!:14 VDD!:17 26.124802 $li  $L=0.51025 $W=0.250000 $SI_W=0.25 $TYPE=10 $DIR=0 $LLX=2.760000 $LLY=4.015000 $URX=3.270000 $URY=4.265000 $lvl=2
RfC82 VDD!:17 VDD!:19 66.648094 $li  $L=0.92525 $W=0.170000 $SI_W=0.17 $TYPE=10 $DIR=1 $LLX=3.185000 $LLY=3.215000 $URX=3.355000 $URY=4.140000 $lvl=2
RfC83 VDD!:19 VDD!:20 39.905884 $li  $L=0.53 $W=0.170000 $SI_W=0.17 $TYPE=10 $DIR=1 $LLX=3.185000 $LLY=2.685000 $URX=3.355000 $URY=3.215000 $lvl=2
RfC84 VDD!:17 VDD!:21 44.031998 $li  $L=0.86 $W=0.250000 $SI_W=0.25 $TYPE=10 $DIR=0 $LLX=3.270000 $LLY=4.015000 $URX=4.130000 $URY=4.265000 $lvl=2
RfC85 VDD!:21 VDD!:23 66.648094 $li  $L=0.92525 $W=0.170000 $SI_W=0.17 $TYPE=10 $DIR=1 $LLX=4.045000 $LLY=3.215000 $URX=4.215000 $URY=4.140000 $lvl=2
RfC86 VDD!:23 VDD!:24 39.905884 $li  $L=0.53 $W=0.170000 $SI_W=0.17 $TYPE=10 $DIR=1 $LLX=4.045000 $LLY=2.685000 $URX=4.215000 $URY=3.215000 $lvl=2
RfC87 VDD!:21 VDD!:25 44.031998 $li  $L=0.86 $W=0.250000 $SI_W=0.25 $TYPE=10 $DIR=0 $LLX=4.130000 $LLY=4.015000 $URX=4.990000 $URY=4.265000 $lvl=2
RfC88 VDD!:25 VDD!:27 66.648094 $li  $L=0.92525 $W=0.170000 $SI_W=0.17 $TYPE=10 $DIR=1 $LLX=4.905000 $LLY=3.215000 $URX=5.075000 $URY=4.140000 $lvl=2
RfC89 VDD!:27 VDD!:28 39.905884 $li  $L=0.53 $W=0.170000 $SI_W=0.17 $TYPE=10 $DIR=1 $LLX=4.905000 $LLY=2.685000 $URX=5.075000 $URY=3.215000 $lvl=2
RfC90 VDD!:25 VDD!:29 27.097599 $li  $L=0.52925 $W=0.250000 $SI_W=0.25 $TYPE=10 $DIR=0 $LLX=4.990000 $LLY=4.015000 $URX=5.519000 $URY=4.265000 $lvl=2
Rh_1_C91 VDD!:15 VDD!:14 1.363636 $licon_diff  $A=0.3179 $VC=0 $SAVL=0 $SAVC=0 $SI_A=0.3179 $COVER_DIR=0 $LLX=0.000000 $LLY=0.000000 $URX=-0.317900 $URY=-11.000000 $lvl=5
Rh_2_C92 Mmp0:s VDD!:3 3.750000 $licon_diff  $A=0.1156 $VC=0 $SAVL=0 $SAVC=0 $SI_A=0.1156 $COVER_DIR=0 $LLX=0.000000 $LLY=0.000000 $URX=-0.115600 $URY=-4.000000 $lvl=5
Rh_2_C93 Mmp1:s VDD!:8 5.000000 $licon_diff  $A=0.0867 $VC=0 $SAVL=0 $SAVC=0 $SI_A=0.0867 $COVER_DIR=0 $LLX=0.000000 $LLY=0.000000 $URX=-0.086700 $URY=-3.000000 $lvl=5
Rh_2_C94 Mmp1@1:s VDD!:12 5.000000 $licon_diff  $A=0.0867 $VC=0 $SAVL=0 $SAVC=0 $SI_A=0.0867 $COVER_DIR=0 $LLX=0.000000 $LLY=0.000000 $URX=-0.086700 $URY=-3.000000 $lvl=5
Rh_2_C95 Mmp1@3:s VDD!:19 5.000000 $licon_diff  $A=0.0867 $VC=0 $SAVL=0 $SAVC=0 $SI_A=0.0867 $COVER_DIR=0 $LLX=0.000000 $LLY=0.000000 $URX=-0.086700 $URY=-3.000000 $lvl=5
Rh_2_C96 Mmp1@5:s VDD!:23 5.000000 $licon_diff  $A=0.0867 $VC=0 $SAVL=0 $SAVC=0 $SI_A=0.0867 $COVER_DIR=0 $LLX=0.000000 $LLY=0.000000 $URX=-0.086700 $URY=-3.000000 $lvl=5