*
*|DSPF 1.5
*
*|DATE "Wed Jan  8 22:53:58 2025"
*|VENDOR "Cadence Design Systems"
*|PROGRAM "Cadence Quantus Extraction"
*|VERSION "22.1.0-p089 Linux 64 bit - (Thu Jan 19 11:47:08 PST 2023)"
*|DESIGN CLKBUFX8_HS
*|DIVIDER /
*|DELIMITER :
*|DeviceFingerDelim "@"
*|BUSBIT []
*|GLOBAL_TEMPERATURE 25
*|OPERATING_TEMPERATURE 25

** *VIA_COVERAGE_CODES
** *index FF FS FP FU SF SS SP SU PF PS PP PU UF US UP UU X_by_Y
** * "FF" stands for Full landing and Full coverage
** *0 0 0 0 0 0 0 0 0 0 0 0 0 0 0 0 0
** *1 0 0 0 0 0 0 0 0 0 0 0 0 0 0 0 1 1x1
** *2 0 0 0 0 0 0 0 0 0 0 0 0 0 0 1 0 1x1
** *3 0 0 0 0 0 0 0 0 0 0 0 0 0 1 0 0 1x1
** *4 0 0 0 0 0 0 0 0 0 0 0 0 1 0 0 0 1x1
** *5 0 0 0 0 0 0 0 0 0 0 0 1 0 0 0 0 1x1
** *6 0 0 0 0 0 0 0 0 0 0 1 0 0 0 0 0 1x1
** *7 0 0 0 0 0 0 0 0 0 1 0 0 0 0 0 0 1x1
** *8 0 0 0 0 0 0 0 0 1 0 0 0 0 0 0 0 1x1
** *9 0 0 0 0 0 0 0 1 0 0 0 0 0 0 0 0 1x1
** *10 0 0 0 0 0 0 1 0 0 0 0 0 0 0 0 0 1x1
** *11 0 0 0 0 0 1 0 0 0 0 0 0 0 0 0 0 1x1
** *12 0 0 0 0 1 0 0 0 0 0 0 0 0 0 0 0 1x1
** *13 0 0 0 1 0 0 0 0 0 0 0 0 0 0 0 0 1x1
** *14 0 0 1 0 0 0 0 0 0 0 0 0 0 0 0 0 1x1
** *15 0 1 0 0 0 0 0 0 0 0 0 0 0 0 0 0 1x1
** *16 1 0 0 0 0 0 0 0 0 0 0 0 0 0 0 0 1x1

** *RESISTOR_TYPES
** *1 SHORTING_ELEMENT
** *2 PRES_NG
** *3 PRES_PG
** *4 PRES_NF
** *5 PRES_PF
** *6 TCN_NDIFF
** *7 TCN_PDIFF
** *8 TCN_NFIELD
** *9 TCN_PFIELD
** *10 QUALITY_EXTRACTED
** *11 GCNLAND
** *12 TCNLAND
** *13 DUMMY
** *14 RSD
** *15 BRIDGE

** *RESISTOR_CURRENT_DIRECTION
** *0 HORIZONTAL
** *1 VERTICAL
** *2 45 DEGREE

** QRC_TECH_DIR /vols/wfo_devel/projects/reference_SKY130/tech/sky130_release_0.0.4/quantus/extraction/typical 
** HIERARCHICAL_SPLIT_PINS_DELIMITER '%'
** caps2d version: 10
*
.SUBCKT  CLKBUFX8_HS A Y
*
*Net Section
*
*|GROUND_NET VSS!
*
*LAYER_MAP
*0 none
*1 metal1
*2 li
*3 poly
*4 diff
*5 licon_diff
*6 mcon
*7 licon
*8 FOX

*|NET A 1.82273e-15
*|P (A X 0 0.4750 2.0100) // $llx=0.4750 $lly=2.0100 $urx=0.4750 $ury=2.0100 $lvl=1
*|I (Mmp0:g Mmp0 g X 0 0.4750 3.0200) // $llx=0.4750 $lly=3.0200 $urx=0.4750 $ury=3.0200 $lvl=3
*|I (Mmp0@1:g Mmp0@1 g X 0 0.9050 3.0200) // $llx=0.9050 $lly=3.0200 $urx=0.9050 $ury=3.0200 $lvl=3
*|I (Mmn0:g Mmn0 g X 0 0.4750 0.9700) // $llx=0.4750 $lly=0.9700 $urx=0.4750 $ury=0.9700 $lvl=3
*|I (Mmn0@1:g Mmn0@1 g X 0 0.9050 0.9700) // $llx=0.9050 $lly=0.9700 $urx=0.9050 $ury=0.9700 $lvl=3
*|S (A:15 0.9050 3.7000) // $llx=0.9050 $lly=3.7000 $urx=0.9050 $ury=3.7000 $lvl=3
*|S (A:16 0.9050 1.8750) // $llx=0.9050 $lly=1.8750 $urx=0.9050 $ury=1.8750 $lvl=3
*|S (A:17 0.6875 1.8750) // $llx=0.6875 $lly=1.8750 $urx=0.6875 $ury=1.8750 $lvl=3
*|S (A:18 0.4750 1.8750) // $llx=0.4750 $lly=1.8750 $urx=0.4750 $ury=1.8750 $lvl=3
*|S (A:19 0.4650 1.7100) // $llx=0.4650 $lly=1.7100 $urx=0.4650 $ury=1.7100 $lvl=3
*|S (A:20 0.9050 0.4400) // $llx=0.9050 $lly=0.4400 $urx=0.9050 $ury=0.4400 $lvl=3
*|S (A:21 0.4650 2.0395) // $llx=0.4650 $lly=2.0395 $urx=0.4650 $ury=2.0395 $lvl=3
*|S (A:22 0.4750 3.7000) // $llx=0.4750 $lly=3.7000 $urx=0.4750 $ury=3.7000 $lvl=3
*|S (A:23 0.4750 0.4400) // $llx=0.4750 $lly=0.4400 $urx=0.4750 $ury=0.4400 $lvl=3
*|S (A:24 1.0250 1.8750) // $llx=1.0250 $lly=1.8750 $urx=1.0250 $ury=1.8750 $lvl=2
*|S (A:25 0.6875 1.8750) // $llx=0.6875 $lly=1.8750 $urx=0.6875 $ury=1.8750 $lvl=2
*|S (A:26 0.4600 1.8750) // $llx=0.4600 $lly=1.8750 $urx=0.4600 $ury=1.8750 $lvl=2
*|S (A:27 0.2400 1.8750) // $llx=0.2400 $lly=1.8750 $urx=0.2400 $ury=1.8750 $lvl=2
*|S (A:28 0.4600 2.6550) // $llx=0.4600 $lly=2.6550 $urx=0.4600 $ury=2.6550 $lvl=1
*|S (A:29 0.4600 1.8750) // $llx=0.4600 $lly=1.8750 $urx=0.4600 $ury=1.8750 $lvl=1
*|S (A:30 0.4600 1.4150) // $llx=0.4600 $lly=1.4150 $urx=0.4600 $ury=1.4150 $lvl=1
CA1 Mmn0@1:g VSS! 2.21372e-18 $lvl=3
CA2 Mmn0:g VSS! 3.04652e-18 $lvl=3
CA3 A:28 VSS! 9.77541e-18 $lvl=1
CA4 A:30 VSS! 6.44709e-18 $lvl=1
CA5 A:15 VSS! 1.41651e-18 $lvl=3
CA6 A:22 VSS! 2.04825e-18 $lvl=3
CA7 A:24 VSS! 3.66219e-18 $lvl=2
CA8 A:27 VSS! 3.59602e-18 $lvl=2
CA9 A:26 VSS! 3.35156e-18 $lvl=2
CA10 A:17 VSS! 2.29393e-17 $lvl=3
CA11 A:30 net44:141 8.81431e-18 $lvl1=1 $lvl2=1
CA12 A:17 net44:129 6.81183e-18 $lvl1=3 $lvl2=2
CA13 A:17 net44:108 6.4388e-18 $lvl1=3 $lvl2=3
CA14 A:26 net44:140 6.23452e-18 $lvl1=2 $lvl2=1
CA15 A:24 net44:137 5.13185e-18 $lvl1=2 $lvl2=2
CA16 A:28 net44:124 5.03996e-18 $lvl1=1 $lvl2=2
CA17 A:30 net44:129 4.51763e-18 $lvl1=1 $lvl2=2
CA18 A:24 net44:129 4.24539e-18 $lvl1=2 $lvl2=2
CA19 A:28 net44:128 4.21287e-18 $lvl1=1 $lvl2=2
CA20 A:17 net44:140 4.15387e-18 $lvl1=3 $lvl2=1
CA21 A:28 net44:138 3.25546e-18 $lvl1=1 $lvl2=1
CA22 A:17 net44:124 3.01164e-18 $lvl1=3 $lvl2=2
CA23 A:17 net44:137 2.41805e-18 $lvl1=3 $lvl2=2
CA24 A:24 net44:108 2.32169e-18 $lvl1=2 $lvl2=3
CA25 A:17 net44:128 2.20207e-18 $lvl1=3 $lvl2=2
CA26 A:24 net44:136 1.95966e-18 $lvl1=2 $lvl2=2
CA27 A:24 net44:128 1.86236e-18 $lvl1=2 $lvl2=2
CA28 A:30 net44:142 1.74013e-18 $lvl1=1 $lvl2=1
CA29 A:26 net44:129 1.66139e-18 $lvl1=2 $lvl2=2
CA30 A:24 net44:144 1.49856e-18 $lvl1=2 $lvl2=1
CA31 A:17 net44:123 1.44825e-18 $lvl1=3 $lvl2=3
CA32 A:28 net44:141 1.27717e-18 $lvl1=1 $lvl2=1
CA33 A:28 net44:144 1.13516e-18 $lvl1=1 $lvl2=1
CA34 A:17 Mmn0:d 1.13124e-18 $lvl1=3 $lvl2=4
CA35 Mmn0@1:g net44:108 1.06627e-18 $lvl1=3 $lvl2=3
CA36 A:24 net44:124 9.48026e-19 $lvl1=2 $lvl2=2
CA37 A:17 Mmp0:d 9.25538e-19 $lvl1=3 $lvl2=4
CA38 A:24 net44:135 9.11717e-19 $lvl1=2 $lvl2=2
CA39 A:17 net44:121 8.12625e-19 $lvl1=3 $lvl2=3
CA40 A:26 net44:128 7.70063e-19 $lvl1=2 $lvl2=2
CA41 A:30 net44:144 7.31231e-19 $lvl1=1 $lvl2=1
CA42 A:17 net44:135 6.84469e-19 $lvl1=3 $lvl2=2
CA43 A:30 net44:139 6.74559e-19 $lvl1=1 $lvl2=1
CA44 A:15 net44:128 6.68195e-19 $lvl1=3 $lvl2=2
CA45 A:27 net44:129 6.30311e-19 $lvl1=2 $lvl2=2
CA46 A:17 net44:136 6.08849e-19 $lvl1=3 $lvl2=2
CA47 A:17 net44:144 5.9689e-19 $lvl1=3 $lvl2=1
CA48 A:22 net44:128 5.88499e-19 $lvl1=3 $lvl2=2
CA49 A:28 net44:142 5.88458e-19 $lvl1=1 $lvl2=1
CA50 A:27 net44:140 5.64837e-19 $lvl1=2 $lvl2=1
CA51 A:24 net44:139 4.84256e-19 $lvl1=2 $lvl2=1
CA52 A:17 net44:139 4.6791e-19 $lvl1=3 $lvl2=1
CA53 A:27 net44:124 3.81368e-19 $lvl1=2 $lvl2=2
CA54 A:22 net44:124 1.89578e-16 $lvl1=3 $lvl2=2
CA55 A:15 net44:124 1.88002e-16 $lvl1=3 $lvl2=2
CA56 A:24 net44:140 1.85124e-17 $lvl1=2 $lvl2=1
CA57 A:30 net44:140 5.42373e-17 $lvl1=1 $lvl2=1
CA58 Mmn0:g net44:129 1.29494e-16 $lvl1=3 $lvl2=2
CA59 Mmn0@1:g net44:129 1.29647e-16 $lvl1=3 $lvl2=2
CA60 A:28 net44:139 4.15276e-17 $lvl1=1 $lvl2=1
CA61 A:28 net44:140 9.52585e-17 $lvl1=1 $lvl2=1
CA62 A:17 VSS!:30 5.64119e-18 $lvl1=3 $lvl2=2
CA63 Mmn0@1:g VSS!:13 4.22576e-18 $lvl1=3 $lvl2=2
CA64 A:27 VSS!:30 3.48802e-18 $lvl1=2 $lvl2=2
CA65 Mmn0:g VSS!:14 3.27645e-18 $lvl1=3 $lvl2=2
CA66 A:17 VSS!:27 3.18743e-18 $lvl1=3 $lvl2=2
CA67 A:28 VSS!:30 2.77897e-18 $lvl1=1 $lvl2=2
CA68 A:24 VSS!:27 2.62347e-18 $lvl1=2 $lvl2=2
CA69 A:26 VSS!:30 2.54334e-18 $lvl1=2 $lvl2=2
CA70 A:30 VSS!:33 2.0287e-18 $lvl1=1 $lvl2=1
CA71 A:28 VSS!:33 1.98684e-18 $lvl1=1 $lvl2=1
CA72 A:24 VSS!:30 1.88762e-18 $lvl1=2 $lvl2=2
CA73 A:30 VSS!:34 1.56153e-18 $lvl1=1 $lvl2=1
CA74 Mmn0@1:g VSS!:14 1.25699e-18 $lvl1=3 $lvl2=2
CA75 Mmn0@1:g VSS!:30 1.13064e-18 $lvl1=3 $lvl2=2
CA76 A:28 VSS!:34 1.09418e-18 $lvl1=1 $lvl2=1
CA77 A:17 Mmn0:s 1.08963e-18 $lvl1=3 $lvl2=4
CA78 Mmn0@1:g VSS!:27 1.32729e-16 $lvl1=3 $lvl2=2
CA79 A:30 VSS!:30 9.74768e-18 $lvl1=1 $lvl2=2
CA80 Mmn0:g VSS!:30 1.32905e-16 $lvl1=3 $lvl2=2
CA81 A:17 VDD!:1 4.83276e-18 $lvl1=3 $lvl2=2
CA82 A:27 VDD! 4.77725e-18 $lvl1=2 $lvl2=1
CA83 A:15 VDD!:5 3.71666e-18 $lvl1=3 $lvl2=2
CA84 A:17 VDD!:13 3.70309e-18 $lvl1=3 $lvl2=2
CA85 A:22 VDD!:4 3.65847e-18 $lvl1=3 $lvl2=2
CA86 A:28 VDD!:47 3.07654e-18 $lvl1=1 $lvl2=1
CA87 A:27 VDD!:1 3.01934e-18 $lvl1=2 $lvl2=2
CA88 A:24 VDD!:13 2.38839e-18 $lvl1=2 $lvl2=2
CA89 A:28 VDD!:48 2.34284e-18 $lvl1=1 $lvl2=1
CA90 A:26 VDD! 2.28726e-18 $lvl1=2 $lvl2=1
CA91 A:26 VDD!:1 2.0299e-18 $lvl1=2 $lvl2=2
CA92 A:24 VDD!:1 1.60184e-18 $lvl1=2 $lvl2=2
CA93 A:24 VDD! 1.29465e-18 $lvl1=2 $lvl2=1
CA94 A:15 VDD!:4 1.16379e-18 $lvl1=3 $lvl2=2
CA95 A:30 VDD!:1 1.13681e-18 $lvl1=1 $lvl2=2
CA96 A:15 VDD!:1 1.08363e-18 $lvl1=3 $lvl2=2
CA97 A:22 VDD!:5 1.06307e-18 $lvl1=3 $lvl2=2
CA98 A:15 VDD!:13 1.9255e-16 $lvl1=3 $lvl2=2
CA99 A:17 VDD! 1.30813e-17 $lvl1=3 $lvl2=1
CA100 A:22 VDD!:1 1.94683e-16 $lvl1=3 $lvl2=2
CA101 A:28 VDD!:1 2.14951e-17 $lvl1=1 $lvl2=2
CA102 A:28 VDD! 2.51843e-17 $lvl1=1 $lvl2=1
CA103 A:30 VDD! 1.10346e-17 $lvl1=1 $lvl2=1
CA104 A:28 Y:71 2.13384e-18 $lvl1=1 $lvl2=1
CA105 A:17 Y:1 1.10254e-18 $lvl1=3 $lvl2=2
CA106 A:24 Y:1 1.04805e-18 $lvl1=2 $lvl2=2
CA107 A:30 Y:64 8.59503e-19 $lvl1=1 $lvl2=1
CA108 A:15 Y:1 8.22343e-19 $lvl1=3 $lvl2=2
ReA1 A:28 A 0.310096 $metal1  $L=0.645 $W=0.260000 $SI_W=0.26 $TYPE=10 $DIR=1 $LLX=0.330000 $LLY=2.010000 $URX=0.590000 $URY=2.655000 $lvl=1
ReA2 A A:29 0.064904 $metal1  $L=0.135 $W=0.260000 $SI_W=0.26 $TYPE=10 $DIR=1 $LLX=0.345000 $LLY=1.875000 $URX=0.605000 $URY=2.010000 $lvl=1
ReA3 A:29 A:30 0.221154 $metal1  $L=0.46 $W=0.260000 $SI_W=0.26 $TYPE=10 $DIR=1 $LLX=0.330000 $LLY=1.415000 $URX=0.590000 $URY=1.875000 $lvl=1
RfA4 A:24 A:25 25.411764 $li  $L=0.3375 $W=0.170000 $SI_W=0.17 $TYPE=10 $DIR=0 $LLX=0.687500 $LLY=1.790000 $URX=1.025000 $URY=1.960000 $lvl=2
RfA5 A:25 A:26 17.129412 $li  $L=0.2275 $W=0.170000 $SI_W=0.17 $TYPE=10 $DIR=0 $LLX=0.460000 $LLY=1.790000 $URX=0.687500 $URY=1.960000 $lvl=2
RfA6 A:26 A:27 16.564707 $li  $L=0.22 $W=0.170000 $SI_W=0.17 $TYPE=10 $DIR=0 $LLX=0.240000 $LLY=1.790000 $URX=0.460000 $URY=1.960000 $lvl=2
RgA7 A:15 Mmp0@1:g 218.506668 $poly  $L=0.68 $W=0.150000 $SI_W=0.15 $TYPE=10 $DIR=1 $LLX=0.830000 $LLY=3.020000 $URX=0.980000 $URY=3.700000 $lvl=3
RgA8 Mmp0@1:g A:16 363.527954 $poly  $L=1.14475 $W=0.150000 $SI_W=0.15 $TYPE=10 $DIR=1 $LLX=0.830000 $LLY=1.875000 $URX=0.980000 $URY=3.020000 $lvl=3
RgA9 A:16 A:17 31.804699 $poly  $L=0.21775 $W=0.330000 $SI_W=0.33 $TYPE=10 $DIR=0 $LLX=0.687000 $LLY=1.710000 $URX=0.905000 $URY=2.040000 $lvl=3
RgA10 A:17 A:18 31.001364 $poly  $L=0.21225 $W=0.330000 $SI_W=0.33 $TYPE=10 $DIR=0 $LLX=0.475000 $LLY=1.710000 $URX=0.687000 $URY=2.040000 $lvl=3
RgA11 A:18 A:19 46.784668 $poly  $L=0.16475 $W=0.170000 $SI_W=0.17 $TYPE=10 $DIR=1 $LLX=0.380000 $LLY=1.710000 $URX=0.550000 $URY=1.875000 $lvl=3
RgA12 A:19 Mmn0:g 237.857559 $poly  $L=0.74 $W=0.150000 $SI_W=0.15 $TYPE=10 $DIR=1 $LLX=0.400000 $LLY=0.970000 $URX=0.550000 $URY=1.710000 $lvl=3
RgA13 A:16 Mmn0@1:g 286.553986 $poly  $L=0.90525 $W=0.150000 $SI_W=0.15 $TYPE=10 $DIR=1 $LLX=0.830000 $LLY=0.970000 $URX=0.980000 $URY=1.875000 $lvl=3
RgA14 Mmn0@1:g A:20 170.306671 $poly  $L=0.53 $W=0.150000 $SI_W=0.15 $TYPE=10 $DIR=1 $LLX=0.830000 $LLY=0.440000 $URX=0.980000 $URY=0.970000 $lvl=3
RgA15 A:18 A:21 46.642902 $poly  $L=0.16425 $W=0.170000 $SI_W=0.17 $TYPE=10 $DIR=1 $LLX=0.380000 $LLY=1.875500 $URX=0.550000 $URY=2.039500 $lvl=3
RgA16 A:21 Mmp0:g 314.977539 $poly  $L=0.98 $W=0.150000 $SI_W=0.15 $TYPE=10 $DIR=1 $LLX=0.400000 $LLY=2.039500 $URX=0.550000 $URY=3.019500 $lvl=3
RgA17 Mmp0:g A:22 218.506668 $poly  $L=0.68 $W=0.150000 $SI_W=0.15 $TYPE=10 $DIR=1 $LLX=0.400000 $LLY=3.020000 $URX=0.550000 $URY=3.700000 $lvl=3
RgA18 Mmn0:g A:23 170.306671 $poly  $L=0.53 $W=0.150000 $SI_W=0.15 $TYPE=10 $DIR=1 $LLX=0.400000 $LLY=0.440000 $URX=0.550000 $URY=0.970000 $lvl=3
RjA19 A:26 A:29 152.000000 $mcon  $L=0.17 $W=0.17 $A=0.0289 $VC=0 $SAVL=0 $SAVC=0 $SI_A=0.0289 $COVER_DIR=0 $LLX=0.000000 $LLY=0.000000 $URX=0.170000 $URY=0.170000 $lvl=6
RiA20 A:17 A:25 7.500000 $licon  $A=0.0578 $VC=0 $SAVL=0 $SAVC=0 $SI_A=0.0578 $COVER_DIR=0 $LLX=0.000000 $LLY=0.000000 $URX=-0.057800 $URY=-2.000000 $lvl=7
*
*|NET VSS! 4.13133e-15
*|P (VSS! X 0 2.4150 0.0050) // $llx=2.4150 $lly=0.0050 $urx=2.4150 $ury=0.0050 $lvl=1
*|I (Mmn1:s Mmn1 s X 0 1.2595 0.9700) // $llx=1.2595 $lly=0.9700 $urx=1.2595 $ury=0.9700 $lvl=4
*|I (Mmn1:b Mmn1 b X 0 1.3350 0.9700) // $llx=1.3350 $lly=0.9700 $urx=1.3350 $ury=0.9700 $lvl=8
*|I (Mmn1@1:s Mmn1@1 s X 0 1.8405 0.9700) // $llx=1.8405 $lly=0.9700 $urx=1.8405 $ury=0.9700 $lvl=4
*|I (Mmn1@1:b Mmn1@1 b X 0 1.7650 0.9700) // $llx=1.7650 $lly=0.9700 $urx=1.7650 $ury=0.9700 $lvl=8
*|I (Mmn1@2:s Mmn1@2 s X 0 2.1195 0.9700) // $llx=2.1195 $lly=0.9700 $urx=2.1195 $ury=0.9700 $lvl=4
*|I (Mmn1@2:b Mmn1@2 b X 0 2.1950 0.9700) // $llx=2.1950 $lly=0.9700 $urx=2.1950 $ury=0.9700 $lvl=8
*|I (Mmn1@3:s Mmn1@3 s X 0 2.7005 0.9700) // $llx=2.7005 $lly=0.9700 $urx=2.7005 $ury=0.9700 $lvl=4
*|I (Mmn1@3:b Mmn1@3 b X 0 2.6250 0.9700) // $llx=2.6250 $lly=0.9700 $urx=2.6250 $ury=0.9700 $lvl=8
*|I (Mmn1@4:s Mmn1@4 s X 0 2.9795 0.9700) // $llx=2.9795 $lly=0.9700 $urx=2.9795 $ury=0.9700 $lvl=4
*|I (Mmn1@4:b Mmn1@4 b X 0 3.0550 0.9700) // $llx=3.0550 $lly=0.9700 $urx=3.0550 $ury=0.9700 $lvl=8
*|I (Mmn1@5:s Mmn1@5 s X 0 3.5605 0.9700) // $llx=3.5605 $lly=0.9700 $urx=3.5605 $ury=0.9700 $lvl=4
*|I (Mmn1@5:b Mmn1@5 b X 0 3.4850 0.9700) // $llx=3.4850 $lly=0.9700 $urx=3.4850 $ury=0.9700 $lvl=8
*|I (Mmn1@6:s Mmn1@6 s X 0 3.8395 0.9700) // $llx=3.8395 $lly=0.9700 $urx=3.8395 $ury=0.9700 $lvl=4
*|I (Mmn1@6:b Mmn1@6 b X 0 3.9150 0.9700) // $llx=3.9150 $lly=0.9700 $urx=3.9150 $ury=0.9700 $lvl=8
*|I (Mmn1@7:s Mmn1@7 s X 0 4.4205 0.9700) // $llx=4.4205 $lly=0.9700 $urx=4.4205 $ury=0.9700 $lvl=4
*|I (Mmn1@7:b Mmn1@7 b X 0 4.3450 0.9700) // $llx=4.3450 $lly=0.9700 $urx=4.3450 $ury=0.9700 $lvl=8
*|I (Mmn0:s Mmn0 s X 0 0.3995 0.9700) // $llx=0.3995 $lly=0.9700 $urx=0.3995 $ury=0.9700 $lvl=4
*|I (Mmn0:b Mmn0 b X 0 0.4750 0.9700) // $llx=0.4750 $lly=0.9700 $urx=0.4750 $ury=0.9700 $lvl=8
*|I (Mmn0@1:s Mmn0@1 s X 0 0.9805 0.9700) // $llx=0.9805 $lly=0.9700 $urx=0.9805 $ury=0.9700 $lvl=4
*|I (Mmn0@1:b Mmn0@1 b X 0 0.9050 0.9700) // $llx=0.9050 $lly=0.9700 $urx=0.9050 $ury=0.9700 $lvl=8
*|S (VSS!:1 8.2800 0.0000) // $llx=8.2800 $lly=0.0000 $urx=8.2800 $ury=0.0000 $lvl=2
*|S (VSS!:2 7.5900 0.0000) // $llx=7.5900 $lly=0.0000 $urx=7.5900 $ury=0.0000 $lvl=2
*|S (VSS!:3 7.5900 0.0000) // $llx=7.5900 $lly=0.0000 $urx=7.5900 $ury=0.0000 $lvl=4
*|S (VSS!:5 4.5600 0.0000) // $llx=4.5600 $lly=0.0000 $urx=4.5600 $ury=0.0000 $lvl=2
*|S (VSS!:6 3.6800 0.0000) // $llx=3.6800 $lly=0.0000 $urx=3.6800 $ury=0.0000 $lvl=2
*|S (VSS!:9 4.5600 0.9700) // $llx=4.5600 $lly=0.9700 $urx=4.5600 $ury=0.9700 $lvl=2
*|S (VSS!:10 4.5600 1.3500) // $llx=4.5600 $lly=1.3500 $urx=4.5600 $ury=1.3500 $lvl=2
*|S (VSS!:11 2.8400 0.0000) // $llx=2.8400 $lly=0.0000 $urx=2.8400 $ury=0.0000 $lvl=2
*|S (VSS!:12 1.9800 0.0000) // $llx=1.9800 $lly=0.0000 $urx=1.9800 $ury=0.0000 $lvl=2
*|S (VSS!:13 1.1200 0.0000) // $llx=1.1200 $lly=0.0000 $urx=1.1200 $ury=0.0000 $lvl=2
*|S (VSS!:14 0.2600 0.0000) // $llx=0.2600 $lly=0.0000 $urx=0.2600 $ury=0.0000 $lvl=2
*|S (VSS!:15 0.0000 0.0000) // $llx=0.0000 $lly=0.0000 $urx=0.0000 $ury=0.0000 $lvl=2
*|S (VSS!:17 3.7000 0.9700) // $llx=3.7000 $lly=0.9700 $urx=3.7000 $ury=0.9700 $lvl=2
*|S (VSS!:18 3.7000 1.3500) // $llx=3.7000 $lly=1.3500 $urx=3.7000 $ury=1.3500 $lvl=2
*|S (VSS!:20 2.8400 0.9700) // $llx=2.8400 $lly=0.9700 $urx=2.8400 $ury=0.9700 $lvl=2
*|S (VSS!:21 2.8400 1.3500) // $llx=2.8400 $lly=1.3500 $urx=2.8400 $ury=1.3500 $lvl=2
*|S (VSS!:23 1.9800 0.9700) // $llx=1.9800 $lly=0.9700 $urx=1.9800 $ury=0.9700 $lvl=2
*|S (VSS!:24 1.9800 1.3500) // $llx=1.9800 $lly=1.3500 $urx=1.9800 $ury=1.3500 $lvl=2
*|S (VSS!:26 1.1200 0.9700) // $llx=1.1200 $lly=0.9700 $urx=1.1200 $ury=0.9700 $lvl=2
*|S (VSS!:27 1.1200 1.3500) // $llx=1.1200 $lly=1.3500 $urx=1.1200 $ury=1.3500 $lvl=2
*|S (VSS!:29 0.2600 0.9700) // $llx=0.2600 $lly=0.9700 $urx=0.2600 $ury=0.9700 $lvl=2
*|S (VSS!:30 0.2600 1.3500) // $llx=0.2600 $lly=1.3500 $urx=0.2600 $ury=1.3500 $lvl=2
*|S (VSS!:31 8.2800 0.0000) // $llx=8.2800 $lly=0.0000 $urx=8.2800 $ury=0.0000 $lvl=1
*|S (VSS!:32 7.5900 0.0000) // $llx=7.5900 $lly=0.0000 $urx=7.5900 $ury=0.0000 $lvl=1
*|S (VSS!:33 3.6800 0.0000) // $llx=3.6800 $lly=0.0000 $urx=3.6800 $ury=0.0000 $lvl=1
*|S (VSS!:34 0.0000 0.0000) // $llx=0.0000 $lly=0.0000 $urx=0.0000 $ury=0.0000 $lvl=1
ReD184 VSS!:31 VSS!:32 0.215625 $metal1  $L=0.69 $W=0.400000 $SI_W=0.4 $TYPE=10 $DIR=0 $LLX=7.590000 $LLY=-0.199500 $URX=8.280000 $URY=0.200000 $lvl=1
ReD185 VSS!:32 VSS!:33 1.221875 $metal1  $L=3.91 $W=0.400000 $SI_W=0.4 $TYPE=10 $DIR=0 $LLX=3.680000 $LLY=-0.199500 $URX=7.590000 $URY=0.200000 $lvl=1
ReD186 VSS!:33 VSS! 0.395312 $metal1  $L=1.265 $W=0.400000 $SI_W=0.4 $TYPE=10 $DIR=0 $LLX=2.415000 $LLY=-0.199500 $URX=3.680000 $URY=0.200000 $lvl=1
ReD187 VSS! VSS!:34 0.754687 $metal1  $L=2.415 $W=0.400000 $SI_W=0.4 $TYPE=10 $DIR=0 $LLX=0.000000 $LLY=-0.199500 $URX=2.415000 $URY=0.200000 $lvl=1
RfD188 VSS!:1 VSS!:2 35.327999 $li  $L=0.69 $W=0.250000 $SI_W=0.25 $TYPE=10 $DIR=0 $LLX=7.590000 $LLY=-0.124500 $URX=8.280000 $URY=0.125000 $lvl=2
RfD189 VSS!:2 VSS!:5 155.123199 $li  $L=3.02975 $W=0.250000 $SI_W=0.25 $TYPE=10 $DIR=0 $LLX=4.560000 $LLY=-0.124500 $URX=7.590000 $URY=0.125000 $lvl=2
RfD190 VSS!:5 VSS!:6 45.068798 $li  $L=0.88025 $W=0.250000 $SI_W=0.25 $TYPE=10 $DIR=0 $LLX=3.680000 $LLY=-0.124500 $URX=4.560000 $URY=0.125000 $lvl=2
RfD191 VSS!:5 VSS!:9 70.010727 $li  $L=0.96975 $W=0.170000 $SI_W=0.17 $TYPE=10 $DIR=1 $LLX=4.475000 $LLY=0.000000 $URX=4.645000 $URY=0.970000 $lvl=2
RfD192 VSS!:9 VSS!:10 28.611765 $li  $L=0.38 $W=0.170000 $SI_W=0.17 $TYPE=10 $DIR=1 $LLX=4.475000 $LLY=0.970000 $URX=4.645000 $URY=1.350000 $lvl=2
RfD193 VSS!:6 VSS!:11 42.995201 $li  $L=0.83975 $W=0.250000 $SI_W=0.25 $TYPE=10 $DIR=0 $LLX=2.840000 $LLY=-0.124500 $URX=3.680000 $URY=0.125000 $lvl=2
RfD194 VSS!:11 VSS!:12 44.031998 $li  $L=0.86 $W=0.250000 $SI_W=0.25 $TYPE=10 $DIR=0 $LLX=1.980000 $LLY=-0.124500 $URX=2.840000 $URY=0.125000 $lvl=2
RfD195 VSS!:12 VSS!:13 44.031998 $li  $L=0.86 $W=0.250000 $SI_W=0.25 $TYPE=10 $DIR=0 $LLX=1.120000 $LLY=-0.124500 $URX=1.980000 $URY=0.125000 $lvl=2
RfD196 VSS!:13 VSS!:14 44.031998 $li  $L=0.86 $W=0.250000 $SI_W=0.25 $TYPE=10 $DIR=0 $LLX=0.260000 $LLY=-0.124500 $URX=1.120000 $URY=0.125000 $lvl=2
RfD197 VSS!:14 VSS!:15 13.324800 $li  $L=0.26025 $W=0.250000 $SI_W=0.25 $TYPE=10 $DIR=0 $LLX=0.000000 $LLY=-0.124500 $URX=0.260000 $URY=0.125000 $lvl=2
RfD198 VSS!:6 VSS!:17 70.023529 $li  $L=0.97 $W=0.170000 $SI_W=0.17 $TYPE=10 $DIR=1 $LLX=3.615000 $LLY=0.000000 $URX=3.785000 $URY=0.970000 $lvl=2
RfD199 VSS!:17 VSS!:18 28.611765 $li  $L=0.38 $W=0.170000 $SI_W=0.17 $TYPE=10 $DIR=1 $LLX=3.615000 $LLY=0.970000 $URX=3.785000 $URY=1.350000 $lvl=2
RfD200 VSS!:11 VSS!:20 70.010727 $li  $L=0.96975 $W=0.170000 $SI_W=0.17 $TYPE=10 $DIR=1 $LLX=2.755000 $LLY=0.000000 $URX=2.925000 $URY=0.970000 $lvl=2
RfD201 VSS!:20 VSS!:21 28.611765 $li  $L=0.38 $W=0.170000 $SI_W=0.17 $TYPE=10 $DIR=1 $LLX=2.755000 $LLY=0.970000 $URX=2.925000 $URY=1.350000 $lvl=2
RfD202 VSS!:12 VSS!:23 70.010727 $li  $L=0.96975 $W=0.170000 $SI_W=0.17 $TYPE=10 $DIR=1 $LLX=1.895000 $LLY=0.000000 $URX=2.065000 $URY=0.970000 $lvl=2
RfD203 VSS!:23 VSS!:24 28.611765 $li  $L=0.38 $W=0.170000 $SI_W=0.17 $TYPE=10 $DIR=1 $LLX=1.895000 $LLY=0.970000 $URX=2.065000 $URY=1.350000 $lvl=2
RfD204 VSS!:13 VSS!:26 70.010727 $li  $L=0.96975 $W=0.170000 $SI_W=0.17 $TYPE=10 $DIR=1 $LLX=1.035000 $LLY=0.000000 $URX=1.205000 $URY=0.970000 $lvl=2
RfD205 VSS!:26 VSS!:27 28.611765 $li  $L=0.38 $W=0.170000 $SI_W=0.17 $TYPE=10 $DIR=1 $LLX=1.035000 $LLY=0.970000 $URX=1.205000 $URY=1.350000 $lvl=2
RfD206 VSS!:14 VSS!:29 70.010727 $li  $L=0.96975 $W=0.170000 $SI_W=0.17 $TYPE=10 $DIR=1 $LLX=0.175000 $LLY=0.000000 $URX=0.345000 $URY=0.970000 $lvl=2
RfD207 VSS!:29 VSS!:30 28.611765 $li  $L=0.38 $W=0.170000 $SI_W=0.17 $TYPE=10 $DIR=1 $LLX=0.175000 $LLY=0.970000 $URX=0.345000 $URY=1.350000 $lvl=2
RhD208 Mmn1@7:s VSS!:9 7.500000 $licon_diff  $A=0.0578 $VC=0 $SAVL=0 $SAVC=0 $SI_A=0.0578 $COVER_DIR=0 $LLX=0.000000 $LLY=0.000000 $URX=-0.057800 $URY=-2.000000 $lvl=5
RhD209 Mmn1@5:s VSS!:17 7.500000 $licon_diff  $A=0.0578 $VC=0 $SAVL=0 $SAVC=0 $SI_A=0.0578 $COVER_DIR=0 $LLX=0.000000 $LLY=0.000000 $URX=-0.057800 $URY=-2.000000 $lvl=5
RhD210 Mmn1@3:s VSS!:20 7.500000 $licon_diff  $A=0.0578 $VC=0 $SAVL=0 $SAVC=0 $SI_A=0.0578 $COVER_DIR=0 $LLX=0.000000 $LLY=0.000000 $URX=-0.057800 $URY=-2.000000 $lvl=5
RhD211 Mmn1@1:s VSS!:23 7.500000 $licon_diff  $A=0.0578 $VC=0 $SAVL=0 $SAVC=0 $SI_A=0.0578 $COVER_DIR=0 $LLX=0.000000 $LLY=0.000000 $URX=-0.057800 $URY=-2.000000 $lvl=5
RhD212 Mmn1:s VSS!:26 7.500000 $licon_diff  $A=0.0578 $VC=0 $SAVL=0 $SAVC=0 $SI_A=0.0578 $COVER_DIR=0 $LLX=0.000000 $LLY=0.000000 $URX=-0.057800 $URY=-2.000000 $lvl=5
RhD213 Mmn0:s VSS!:29 7.500000 $licon_diff  $A=0.0578 $VC=0 $SAVL=0 $SAVC=0 $SI_A=0.0578 $COVER_DIR=0 $LLX=0.000000 $LLY=0.000000 $URX=-0.057800 $URY=-2.000000 $lvl=5
Rh_3_D214 VSS!:3 VSS!:2 7.500000 $licon_diff  $A=0.0578 $VC=0 $SAVL=0 $SAVC=0 $SI_A=0.0578 $COVER_DIR=0 $LLX=0.000000 $LLY=0.000000 $URX=-0.057800 $URY=-2.000000 $lvl=5
Rh_3_D215 VSS!:3 VSS!:6 1.000000 $licon_diff  $A=0.4335 $VC=0 $SAVL=0 $SAVC=0 $SI_A=0.4335 $COVER_DIR=0 $LLX=0.000000 $LLY=0.000000 $URX=-0.433500 $URY=-15.000000 $lvl=5
RjD216 VSS!:2 VSS!:32 76.000000 $mcon  $A=0.0578 $VC=0 $SAVL=0 $SAVC=0 $SI_A=0.0578 $COVER_DIR=0 $LLX=0.000000 $LLY=0.000000 $URX=-0.057800 $URY=-2.000000 $lvl=6
RjD217 VSS!:6 VSS!:33 10.133333 $mcon  $A=0.4335 $VC=0 $SAVL=0 $SAVC=0 $SI_A=0.4335 $COVER_DIR=0 $LLX=0.000000 $LLY=0.000000 $URX=-0.433500 $URY=-15.000000 $lvl=6
RmwD218 Mmn1:b VSS! 0.001000 $FOX $W=1000000 $SI_W=1000000 $TYPE=1 $DIR=0
RmwD219 Mmn1@1:b VSS! 0.001000 $FOX $W=1000000 $SI_W=1000000 $TYPE=1 $DIR=0
RmwD220 Mmn1@2:s Mmn1@1:s 0.001000 $diff $W=1000000 $SI_W=1000000 $TYPE=1 $DIR=0
RmwD221 Mmn1@2:b VSS! 0.001000 $FOX $W=1000000 $SI_W=1000000 $TYPE=1 $DIR=0
RmwD222 Mmn1@3:b VSS! 0.001000 $FOX $W=1000000 $SI_W=1000000 $TYPE=1 $DIR=0
RmwD223 Mmn1@4:s Mmn1@3:s 0.001000 $diff $W=1000000 $SI_W=1000000 $TYPE=1 $DIR=0
RmwD224 Mmn1@4:b VSS! 0.001000 $FOX $W=1000000 $SI_W=1000000 $TYPE=1 $DIR=0
RmwD225 Mmn1@5:b VSS! 0.001000 $FOX $W=1000000 $SI_W=1000000 $TYPE=1 $DIR=0
RmwD226 Mmn1@6:s Mmn1@5:s 0.001000 $diff $W=1000000 $SI_W=1000000 $TYPE=1 $DIR=0
RmwD227 Mmn1@6:b VSS! 0.001000 $FOX $W=1000000 $SI_W=1000000 $TYPE=1 $DIR=0
RmwD228 Mmn1@7:b VSS! 0.001000 $FOX $W=1000000 $SI_W=1000000 $TYPE=1 $DIR=0
RmwD229 Mmn0:b VSS! 0.001000 $FOX $W=1000000 $SI_W=1000000 $TYPE=1 $DIR=0
RmwD230 Mmn0@1:s Mmn1:s 0.001000 $diff $W=1000000 $SI_W=1000000 $TYPE=1 $DIR=0
RmwD231 Mmn0@1:b VSS! 0.001000 $FOX $W=1000000 $SI_W=1000000 $TYPE=1 $DIR=0
*
*|NET VDD! 7.32096e-15
*|P (VDD! X 0 2.4150 4.1450) // $llx=2.4150 $lly=4.1450 $urx=2.4150 $ury=4.1450 $lvl=1
*|I (Mmp1:s Mmp1 s X 0 1.2595 3.0200) // $llx=1.2595 $lly=3.0200 $urx=1.2595 $ury=3.0200 $lvl=4
*|I (Mmp1:b Mmp1 b X 0 1.3350 3.0200) // $llx=1.3350 $lly=3.0200 $urx=1.3350 $ury=3.0200 $lvl=8
*|I (Mmp1@1:s Mmp1@1 s X 0 1.8405 3.0200) // $llx=1.8405 $lly=3.0200 $urx=1.8405 $ury=3.0200 $lvl=4
*|I (Mmp1@1:b Mmp1@1 b X 0 1.7650 3.0200) // $llx=1.7650 $lly=3.0200 $urx=1.7650 $ury=3.0200 $lvl=8
*|I (Mmp1@2:s Mmp1@2 s X 0 2.1195 3.0200) // $llx=2.1195 $lly=3.0200 $urx=2.1195 $ury=3.0200 $lvl=4
*|I (Mmp1@2:b Mmp1@2 b X 0 2.1950 3.0200) // $llx=2.1950 $lly=3.0200 $urx=2.1950 $ury=3.0200 $lvl=8
*|I (Mmp1@3:s Mmp1@3 s X 0 2.7005 3.0200) // $llx=2.7005 $lly=3.0200 $urx=2.7005 $ury=3.0200 $lvl=4
*|I (Mmp1@3:b Mmp1@3 b X 0 2.6250 3.0200) // $llx=2.6250 $lly=3.0200 $urx=2.6250 $ury=3.0200 $lvl=8
*|I (Mmp1@4:s Mmp1@4 s X 0 2.9795 3.0200) // $llx=2.9795 $lly=3.0200 $urx=2.9795 $ury=3.0200 $lvl=4
*|I (Mmp1@4:b Mmp1@4 b X 0 3.0550 3.0200) // $llx=3.0550 $lly=3.0200 $urx=3.0550 $ury=3.0200 $lvl=8
*|I (Mmp1@5:s Mmp1@5 s X 0 3.5605 3.0200) // $llx=3.5605 $lly=3.0200 $urx=3.5605 $ury=3.0200 $lvl=4
*|I (Mmp1@5:b Mmp1@5 b X 0 3.4850 3.0200) // $llx=3.4850 $lly=3.0200 $urx=3.4850 $ury=3.0200 $lvl=8
*|I (Mmp1@6:s Mmp1@6 s X 0 3.8395 3.0200) // $llx=3.8395 $lly=3.0200 $urx=3.8395 $ury=3.0200 $lvl=4
*|I (Mmp1@6:b Mmp1@6 b X 0 3.9150 3.0200) // $llx=3.9150 $lly=3.0200 $urx=3.9150 $ury=3.0200 $lvl=8
*|I (Mmp1@7:s Mmp1@7 s X 0 4.4205 3.0200) // $llx=4.4205 $lly=3.0200 $urx=4.4205 $ury=3.0200 $lvl=4
*|I (Mmp1@7:b Mmp1@7 b X 0 4.3450 3.0200) // $llx=4.3450 $lly=3.0200 $urx=4.3450 $ury=3.0200 $lvl=8
*|I (Mmp1@8:s Mmp1@8 s X 0 4.6995 3.0200) // $llx=4.6995 $lly=3.0200 $urx=4.6995 $ury=3.0200 $lvl=4
*|I (Mmp1@8:b Mmp1@8 b X 0 4.7750 3.0200) // $llx=4.7750 $lly=3.0200 $urx=4.7750 $ury=3.0200 $lvl=8
*|I (Mmp1@9:s Mmp1@9 s X 0 5.2805 3.0200) // $llx=5.2805 $lly=3.0200 $urx=5.2805 $ury=3.0200 $lvl=4
*|I (Mmp1@9:b Mmp1@9 b X 0 5.2050 3.0200) // $llx=5.2050 $lly=3.0200 $urx=5.2050 $ury=3.0200 $lvl=8
*|I (Mmp1@10:s Mmp1@10 s X 0 5.5595 3.0200) // $llx=5.5595 $lly=3.0200 $urx=5.5595 $ury=3.0200 $lvl=4
*|I (Mmp1@10:b Mmp1@10 b X 0 5.6350 3.0200) // $llx=5.6350 $lly=3.0200 $urx=5.6350 $ury=3.0200 $lvl=8
*|I (Mmp1@11:s Mmp1@11 s X 0 6.1405 3.0200) // $llx=6.1405 $lly=3.0200 $urx=6.1405 $ury=3.0200 $lvl=4
*|I (Mmp1@11:b Mmp1@11 b X 0 6.0650 3.0200) // $llx=6.0650 $lly=3.0200 $urx=6.0650 $ury=3.0200 $lvl=8
*|I (Mmp1@12:s Mmp1@12 s X 0 6.4195 3.0200) // $llx=6.4195 $lly=3.0200 $urx=6.4195 $ury=3.0200 $lvl=4
*|I (Mmp1@12:b Mmp1@12 b X 0 6.4950 3.0200) // $llx=6.4950 $lly=3.0200 $urx=6.4950 $ury=3.0200 $lvl=8
*|I (Mmp1@13:s Mmp1@13 s X 0 7.0005 3.0200) // $llx=7.0005 $lly=3.0200 $urx=7.0005 $ury=3.0200 $lvl=4
*|I (Mmp1@13:b Mmp1@13 b X 0 6.9250 3.0200) // $llx=6.9250 $lly=3.0200 $urx=6.9250 $ury=3.0200 $lvl=8
*|I (Mmp1@14:s Mmp1@14 s X 0 7.2795 3.0200) // $llx=7.2795 $lly=3.0200 $urx=7.2795 $ury=3.0200 $lvl=4
*|I (Mmp1@14:b Mmp1@14 b X 0 7.3550 3.0200) // $llx=7.3550 $lly=3.0200 $urx=7.3550 $ury=3.0200 $lvl=8
*|I (Mmp1@15:s Mmp1@15 s X 0 7.8605 3.0200) // $llx=7.8605 $lly=3.0200 $urx=7.8605 $ury=3.0200 $lvl=4
*|I (Mmp1@15:b Mmp1@15 b X 0 7.7850 3.0200) // $llx=7.7850 $lly=3.0200 $urx=7.7850 $ury=3.0200 $lvl=8
*|I (Mmp0:s Mmp0 s X 0 0.3995 3.0200) // $llx=0.3995 $lly=3.0200 $urx=0.3995 $ury=3.0200 $lvl=4
*|I (Mmp0:b Mmp0 b X 0 0.4750 3.0200) // $llx=0.4750 $lly=3.0200 $urx=0.4750 $ury=3.0200 $lvl=8
*|I (Mmp0@1:s Mmp0@1 s X 0 0.9805 3.0200) // $llx=0.9805 $lly=3.0200 $urx=0.9805 $ury=3.0200 $lvl=4
*|I (Mmp0@1:b Mmp0@1 b X 0 0.9050 3.0200) // $llx=0.9050 $lly=3.0200 $urx=0.9050 $ury=3.0200 $lvl=8
*|S (VDD!:1 0.2600 2.4900) // $llx=0.2600 $lly=2.4900 $urx=0.2600 $ury=2.4900 $lvl=2
*|S (VDD!:3 0.2600 3.0200) // $llx=0.2600 $lly=3.0200 $urx=0.2600 $ury=3.0200 $lvl=2
*|S (VDD!:4 0.2600 4.1400) // $llx=0.2600 $lly=4.1400 $urx=0.2600 $ury=4.1400 $lvl=2
*|S (VDD!:5 1.1200 4.1400) // $llx=1.1200 $lly=4.1400 $urx=1.1200 $ury=4.1400 $lvl=2
*|S (VDD!:6 1.9800 4.1400) // $llx=1.9800 $lly=4.1400 $urx=1.9800 $ury=4.1400 $lvl=2
*|S (VDD!:7 2.5300 4.1400) // $llx=2.5300 $lly=4.1400 $urx=2.5300 $ury=4.1400 $lvl=2
*|S (VDD!:8 2.8400 4.1400) // $llx=2.8400 $lly=4.1400 $urx=2.8400 $ury=4.1400 $lvl=2
*|S (VDD!:9 3.6800 4.1400) // $llx=3.6800 $lly=4.1400 $urx=3.6800 $ury=4.1400 $lvl=4
*|S (VDD!:10 3.6800 4.1400) // $llx=3.6800 $lly=4.1400 $urx=3.6800 $ury=4.1400 $lvl=2
*|S (VDD!:11 0.0000 4.1400) // $llx=0.0000 $lly=4.1400 $urx=0.0000 $ury=4.1400 $lvl=2
*|S (VDD!:13 1.1200 3.0200) // $llx=1.1200 $lly=3.0200 $urx=1.1200 $ury=3.0200 $lvl=2
*|S (VDD!:14 1.1200 2.4900) // $llx=1.1200 $lly=2.4900 $urx=1.1200 $ury=2.4900 $lvl=2
*|S (VDD!:16 1.9800 3.0200) // $llx=1.9800 $lly=3.0200 $urx=1.9800 $ury=3.0200 $lvl=2
*|S (VDD!:17 1.9800 2.4900) // $llx=1.9800 $lly=2.4900 $urx=1.9800 $ury=2.4900 $lvl=2
*|S (VDD!:19 2.8400 3.0200) // $llx=2.8400 $lly=3.0200 $urx=2.8400 $ury=3.0200 $lvl=2
*|S (VDD!:20 2.8400 2.4900) // $llx=2.8400 $lly=2.4900 $urx=2.8400 $ury=2.4900 $lvl=2
*|S (VDD!:22 3.7000 3.0200) // $llx=3.7000 $lly=3.0200 $urx=3.7000 $ury=3.0200 $lvl=2
*|S (VDD!:23 3.7000 2.4900) // $llx=3.7000 $lly=2.4900 $urx=3.7000 $ury=2.4900 $lvl=2
*|S (VDD!:24 4.5600 4.1400) // $llx=4.5600 $lly=4.1400 $urx=4.5600 $ury=4.1400 $lvl=2
*|S (VDD!:26 4.5600 3.0200) // $llx=4.5600 $lly=3.0200 $urx=4.5600 $ury=3.0200 $lvl=2
*|S (VDD!:27 4.5600 2.4900) // $llx=4.5600 $lly=2.4900 $urx=4.5600 $ury=2.4900 $lvl=2
*|S (VDD!:28 5.4200 4.1400) // $llx=5.4200 $lly=4.1400 $urx=5.4200 $ury=4.1400 $lvl=2
*|S (VDD!:30 5.4200 3.0200) // $llx=5.4200 $lly=3.0200 $urx=5.4200 $ury=3.0200 $lvl=2
*|S (VDD!:31 5.4200 2.4900) // $llx=5.4200 $lly=2.4900 $urx=5.4200 $ury=2.4900 $lvl=2
*|S (VDD!:32 6.2800 4.1400) // $llx=6.2800 $lly=4.1400 $urx=6.2800 $ury=4.1400 $lvl=2
*|S (VDD!:34 6.2800 3.0200) // $llx=6.2800 $lly=3.0200 $urx=6.2800 $ury=3.0200 $lvl=2
*|S (VDD!:35 6.2800 2.4900) // $llx=6.2800 $lly=2.4900 $urx=6.2800 $ury=2.4900 $lvl=2
*|S (VDD!:36 7.1400 4.1400) // $llx=7.1400 $lly=4.1400 $urx=7.1400 $ury=4.1400 $lvl=2
*|S (VDD!:38 7.1400 3.0200) // $llx=7.1400 $lly=3.0200 $urx=7.1400 $ury=3.0200 $lvl=2
*|S (VDD!:39 7.1400 2.4900) // $llx=7.1400 $lly=2.4900 $urx=7.1400 $ury=2.4900 $lvl=2
*|S (VDD!:40 7.5900 4.1400) // $llx=7.5900 $lly=4.1400 $urx=7.5900 $ury=4.1400 $lvl=2
*|S (VDD!:41 8.0000 4.1400) // $llx=8.0000 $lly=4.1400 $urx=8.0000 $ury=4.1400 $lvl=2
*|S (VDD!:43 8.0000 3.0200) // $llx=8.0000 $lly=3.0200 $urx=8.0000 $ury=3.0200 $lvl=2
*|S (VDD!:44 8.0000 2.4900) // $llx=8.0000 $lly=2.4900 $urx=8.0000 $ury=2.4900 $lvl=2
*|S (VDD!:45 8.2795 4.1400) // $llx=8.2795 $lly=4.1400 $urx=8.2795 $ury=4.1400 $lvl=2
*|S (VDD!:46 8.2800 4.1400) // $llx=8.2800 $lly=4.1400 $urx=8.2800 $ury=4.1400 $lvl=1
*|S (VDD!:47 2.5300 4.1400) // $llx=2.5300 $lly=4.1400 $urx=2.5300 $ury=4.1400 $lvl=1
*|S (VDD!:48 0.0000 4.1400) // $llx=0.0000 $lly=4.1400 $urx=0.0000 $ury=4.1400 $lvl=1
CC1 Mmp0:s VSS! 2.28209e-18 $lvl=4
CC2 Mmp1@15:s VSS! 7.59075e-19 $lvl=4
CC3 Mmp1@13:s VSS! 1.28215e-18 $lvl=4
CC4 Mmp1@11:s VSS! 4.99453e-19 $lvl=4
CC5 Mmp1@9:s VSS! 6.87933e-19 $lvl=4
CC6 Mmp1@7:s VSS! 7.03607e-19 $lvl=4
CC7 Mmp1@5:s VSS! 2.44396e-19 $lvl=4
CC8 Mmp1@3:s VSS! 3.24077e-19 $lvl=4
CC9 Mmp1@1:s VSS! 8.75184e-19 $lvl=4
CC10 Mmp1:s VSS! 1.67378e-18 $lvl=4
CC11 VDD!:47 VSS! 1.03702e-17 $lvl=1
CC12 VDD!:46 VSS! 1.02274e-17 $lvl=1
CC13 VDD!:48 VSS! 6.16147e-18 $lvl=1
CC14 VDD!:43 VSS! 6.47263e-18 $lvl=2
CC15 VDD!:40 VSS! 3.63327e-18 $lvl=2
CC16 VDD!:38 VSS! 4.95249e-18 $lvl=2
CC17 VDD!:26 VSS! 4.58396e-18 $lvl=2
CC18 VDD!:13 VSS! 5.83331e-18 $lvl=2
CC19 VDD!:1 VSS! 7.19303e-18 $lvl=2
CC20 VDD!:17 VSS! 5.09406e-18 $lvl=2
CC21 VDD!:20 VSS! 4.49327e-18 $lvl=2
CC22 VDD!:23 VSS! 4.19465e-18 $lvl=2