*
*|DSPF 1.5
*
*|DATE "Wed Jan  8 22:49:38 2025"
*|VENDOR "Cadence Design Systems"
*|PROGRAM "Cadence Quantus Extraction"
*|VERSION "22.1.0-p089 Linux 64 bit - (Thu Jan 19 11:47:08 PST 2023)"
*|DESIGN CLKINVX2_HS
*|DIVIDER /
*|DELIMITER :
*|DeviceFingerDelim "@"
*|BUSBIT []
*|GLOBAL_TEMPERATURE 25
*|OPERATING_TEMPERATURE 25

** *VIA_COVERAGE_CODES
** *index FF FS FP FU SF SS SP SU PF PS PP PU UF US UP UU X_by_Y
** * "FF" stands for Full landing and Full coverage
** *0 0 0 0 0 0 0 0 0 0 0 0 0 0 0 0 0
** *1 0 0 0 0 0 0 0 0 0 0 0 0 0 0 0 1 1x1
** *2 0 0 0 0 0 0 0 0 0 0 0 0 0 0 1 0 1x1
** *3 0 0 0 0 0 0 0 0 0 0 0 0 0 1 0 0 1x1
** *4 0 0 0 0 0 0 0 0 0 0 0 0 1 0 0 0 1x1
** *5 0 0 0 0 0 0 0 0 0 0 0 1 0 0 0 0 1x1
** *6 0 0 0 0 0 0 0 0 0 0 1 0 0 0 0 0 1x1
** *7 0 0 0 0 0 0 0 0 0 1 0 0 0 0 0 0 1x1
** *8 0 0 0 0 0 0 0 0 1 0 0 0 0 0 0 0 1x1
** *9 0 0 0 0 0 0 0 1 0 0 0 0 0 0 0 0 1x1
** *10 0 0 0 0 0 0 1 0 0 0 0 0 0 0 0 0 1x1
** *11 0 0 0 0 0 1 0 0 0 0 0 0 0 0 0 0 1x1
** *12 0 0 0 0 1 0 0 0 0 0 0 0 0 0 0 0 1x1
** *13 0 0 0 1 0 0 0 0 0 0 0 0 0 0 0 0 1x1
** *14 0 0 1 0 0 0 0 0 0 0 0 0 0 0 0 0 1x1
** *15 0 1 0 0 0 0 0 0 0 0 0 0 0 0 0 0 1x1
** *16 1 0 0 0 0 0 0 0 0 0 0 0 0 0 0 0 1x1

** *RESISTOR_TYPES
** *1 SHORTING_ELEMENT
** *2 PRES_NG
** *3 PRES_PG
** *4 PRES_NF
** *5 PRES_PF
** *6 TCN_NDIFF
** *7 TCN_PDIFF
** *8 TCN_NFIELD
** *9 TCN_PFIELD
** *10 QUALITY_EXTRACTED
** *11 GCNLAND
** *12 TCNLAND
** *13 DUMMY
** *14 RSD
** *15 BRIDGE

** *RESISTOR_CURRENT_DIRECTION
** *0 HORIZONTAL
** *1 VERTICAL
** *2 45 DEGREE

** QRC_TECH_DIR /vols/wfo_devel/projects/reference_SKY130/tech/sky130_release_0.0.4/quantus/extraction/typical 
** HIERARCHICAL_SPLIT_PINS_DELIMITER '%'
** caps2d version: 10
*
.SUBCKT  CLKINVX2_HS A Y
*
*Net Section
*
*|GROUND_NET VSS!
*
*LAYER_MAP
*0 none
*1 metal1
*2 li
*3 poly
*4 diff
*5 licon_diff
*6 mcon
*7 licon
*8 FOX

*|NET A 3.43734e-15
*|P (A X 0 0.9350 1.9100) // $llx=0.9350 $lly=1.9100 $urx=0.9350 $ury=1.9100 $lvl=1
*|I (Mmp0:g Mmp0 g X 0 0.4750 3.0200) // $llx=0.4750 $lly=3.0200 $urx=0.4750 $ury=3.0200 $lvl=3
*|I (Mmp0@1:g Mmp0@1 g X 0 0.9050 3.0200) // $llx=0.9050 $lly=3.0200 $urx=0.9050 $ury=3.0200 $lvl=3
*|I (Mmp0@2:g Mmp0@2 g X 0 1.3350 3.0200) // $llx=1.3350 $lly=3.0200 $urx=1.3350 $ury=3.0200 $lvl=3
*|I (Mmp0@3:g Mmp0@3 g X 0 1.7650 3.0200) // $llx=1.7650 $lly=3.0200 $urx=1.7650 $ury=3.0200 $lvl=3
*|I (Mmp0@4:g Mmp0@4 g X 0 2.1950 3.0200) // $llx=2.1950 $lly=3.0200 $urx=2.1950 $ury=3.0200 $lvl=3
*|I (Mmp0@5:g Mmp0@5 g X 0 2.6250 3.0200) // $llx=2.6250 $lly=3.0200 $urx=2.6250 $ury=3.0200 $lvl=3
*|I (Mmn0:g Mmn0 g X 0 0.4750 0.9700) // $llx=0.4750 $lly=0.9700 $urx=0.4750 $ury=0.9700 $lvl=3
*|I (Mmn0@1:g Mmn0@1 g X 0 0.9050 0.9700) // $llx=0.9050 $lly=0.9700 $urx=0.9050 $ury=0.9700 $lvl=3
*|S (A:27 2.6250 3.7000) // $llx=2.6250 $lly=3.7000 $urx=2.6250 $ury=3.7000 $lvl=3
*|S (A:28 2.6250 1.7750) // $llx=2.6250 $lly=1.7750 $urx=2.6250 $ury=1.7750 $lvl=3
*|S (A:29 2.1950 1.7750) // $llx=2.1950 $lly=1.7750 $urx=2.1950 $ury=1.7750 $lvl=3
*|S (A:30 1.7650 1.7750) // $llx=1.7650 $lly=1.7750 $urx=1.7650 $ury=1.7750 $lvl=3
*|S (A:31 1.5500 1.7750) // $llx=1.5500 $lly=1.7750 $urx=1.5500 $ury=1.7750 $lvl=3
*|S (A:32 1.3350 1.7750) // $llx=1.3350 $lly=1.7750 $urx=1.3350 $ury=1.7750 $lvl=3
*|S (A:33 0.9050 1.7750) // $llx=0.9050 $lly=1.7750 $urx=0.9050 $ury=1.7750 $lvl=3
*|S (A:34 0.4750 1.7750) // $llx=0.4750 $lly=1.7750 $urx=0.4750 $ury=1.7750 $lvl=3
*|S (A:35 0.3100 1.7750) // $llx=0.3100 $lly=1.7750 $urx=0.3100 $ury=1.7750 $lvl=3
*|S (A:36 2.6250 1.4400) // $llx=2.6250 $lly=1.4400 $urx=2.6250 $ury=1.4400 $lvl=3
*|S (A:37 2.7895 1.7750) // $llx=2.7895 $lly=1.7750 $urx=2.7895 $ury=1.7750 $lvl=3
*|S (A:38 2.1950 1.4400) // $llx=2.1950 $lly=1.4400 $urx=2.1950 $ury=1.4400 $lvl=3
*|S (A:39 2.1950 3.7000) // $llx=2.1950 $lly=3.7000 $urx=2.1950 $ury=3.7000 $lvl=3
*|S (A:40 1.7650 1.4400) // $llx=1.7650 $lly=1.4400 $urx=1.7650 $ury=1.4400 $lvl=3
*|S (A:41 1.7650 3.7000) // $llx=1.7650 $lly=3.7000 $urx=1.7650 $ury=3.7000 $lvl=3
*|S (A:42 1.3350 1.4400) // $llx=1.3350 $lly=1.4400 $urx=1.3350 $ury=1.4400 $lvl=3
*|S (A:43 1.3350 3.7000) // $llx=1.3350 $lly=3.7000 $urx=1.3350 $ury=3.7000 $lvl=3
*|S (A:44 0.9050 0.4400) // $llx=0.9050 $lly=0.4400 $urx=0.9050 $ury=0.4400 $lvl=3
*|S (A:45 0.9050 3.7000) // $llx=0.9050 $lly=3.7000 $urx=0.9050 $ury=3.7000 $lvl=3
*|S (A:46 0.4750 0.4400) // $llx=0.4750 $lly=0.4400 $urx=0.4750 $ury=0.4400 $lvl=3
*|S (A:47 0.4750 3.7000) // $llx=0.4750 $lly=3.7000 $urx=0.4750 $ury=3.7000 $lvl=3
*|S (A:48 2.8300 1.7750) // $llx=2.8300 $lly=1.7750 $urx=2.8300 $ury=1.7750 $lvl=2
*|S (A:49 1.5500 1.7750) // $llx=1.5500 $lly=1.7750 $urx=1.5500 $ury=1.7750 $lvl=2
*|S (A:50 0.9200 1.7750) // $llx=0.9200 $lly=1.7750 $urx=0.9200 $ury=1.7750 $lvl=2
*|S (A:51 0.2900 1.7750) // $llx=0.2900 $lly=1.7750 $urx=0.2900 $ury=1.7750 $lvl=2
*|S (A:52 0.9200 2.5550) // $llx=0.9200 $lly=2.5550 $urx=0.9200 $ury=2.5550 $lvl=1
*|S (A:53 0.9200 1.7750) // $llx=0.9200 $lly=1.7750 $urx=0.9200 $ury=1.7750 $lvl=1
*|S (A:54 0.9200 1.3150) // $llx=0.9200 $lly=1.3150 $urx=0.9200 $ury=1.3150 $lvl=1
CA1 Mmn0@1:g VSS! 8.89541e-19 $lvl=3
CA2 Mmp0@5:g VSS! 1.25886e-18 $lvl=3
CA3 Mmp0@4:g VSS! 1.71502e-18 $lvl=3
CA4 Mmp0@1:g VSS! 1.39048e-18 $lvl=3
CA5 A:54 VSS! 5.28891e-18 $lvl=1
CA6 A:41 VSS! 1.77094e-18 $lvl=3
CA7 A:43 VSS! 1.13666e-18 $lvl=3
CA8 A:47 VSS! 1.14262e-18 $lvl=3
CA9 A:46 VSS! 1.18255e-18 $lvl=3
CA10 A:49 VSS! 1.50037e-17 $lvl=2
CA11 A:51 VSS! 4.44315e-18 $lvl=2
CA12 A:50 VSS! 3.15135e-18 $lvl=2
CA13 A:31 VSS! 8.20987e-17 $lvl=3
CA14 A VSS! 5.70199e-18 $lvl=1
CA15 A:51 VSS!:12 5.36432e-18 $lvl1=2 $lvl2=2
CA16 Mmn0@1:g VSS!:4 4.63442e-18 $lvl1=3 $lvl2=2
CA17 A:54 VSS!:12 3.50877e-18 $lvl1=1 $lvl2=2
CA18 A:49 VSS!:12 3.46573e-18 $lvl1=2 $lvl2=2
CA19 A:31 Mmn0@1:s 3.30465e-18 $lvl1=3 $lvl2=4
CA20 A:31 VSS!:4 3.19443e-18 $lvl1=3 $lvl2=2
CA21 A:46 VSS!:5 3.04691e-18 $lvl1=3 $lvl2=2
CA22 A VSS!:12 2.9507e-18 $lvl1=1 $lvl2=2
CA23 A:50 VSS!:1 2.89183e-18 $lvl1=2 $lvl2=2
CA24 A:49 VSS!:14 2.73262e-18 $lvl1=2 $lvl2=1
CA25 A VSS!:14 2.65425e-18 $lvl1=1 $lvl2=1
CA26 A:49 VSS!:4 2.5488e-18 $lvl1=2 $lvl2=2
CA27 A:31 VSS!:14 2.20429e-18 $lvl1=3 $lvl2=1
CA28 A:54 VSS!:14 2.13662e-18 $lvl1=1 $lvl2=1
CA29 A:31 Mmn0:s 1.82655e-18 $lvl1=3 $lvl2=4
CA30 A:49 VSS!:13 1.3033e-18 $lvl1=2 $lvl2=1
CA31 A:46 VSS!:4 1.19588e-18 $lvl1=3 $lvl2=2
CA32 Mmn0@1:g VSS!:5 1.09359e-18 $lvl1=3 $lvl2=2
CA33 A:46 VSS!:1 1.03596e-18 $lvl1=3 $lvl2=2
CA34 A VSS!:15 1.02845e-18 $lvl1=1 $lvl2=1
CA35 A:54 VSS!:15 9.46898e-19 $lvl1=1 $lvl2=1
CA36 A VSS!:1 8.47321e-19 $lvl1=1 $lvl2=2
CA37 A:31 VSS!:8 6.72205e-19 $lvl1=3 $lvl2=4
CA38 A:31 VSS!:13 6.46849e-19 $lvl1=3 $lvl2=1
CA39 Mmn0@1:g VSS!:12 5.20732e-19 $lvl1=3 $lvl2=2
CA40 A:49 VSS!:8 5.05998e-19 $lvl1=2 $lvl2=4
CA41 A:50 VSS!:12 4.37563e-19 $lvl1=2 $lvl2=2
CA42 A:31 VSS!:7 3.88895e-19 $lvl1=3 $lvl2=2
CA43 A:49 Mmn0@1:s 3.82906e-19 $lvl1=2 $lvl2=4
CA44 A:46 VSS!:12 1.29555e-16 $lvl1=3 $lvl2=2
CA45 A:49 VSS!:1 1.13148e-17 $lvl1=2 $lvl2=2
CA46 A:31 VSS!:12 8.31099e-18 $lvl1=3 $lvl2=2
CA47 A:54 VSS!:1 8.57981e-18 $lvl1=1 $lvl2=2
CA48 Mmn0@1:g VSS!:1 1.23598e-16 $lvl1=3 $lvl2=2
CA49 A:31 VSS!:1 1.76592e-17 $lvl1=3 $lvl2=2
CA50 A VDD!:1 9.03996e-18 $lvl1=1 $lvl2=2
CA51 A:54 VDD! 8.83963e-18 $lvl1=1 $lvl2=1
CA52 A:41 VDD!:6 5.9585e-18 $lvl1=3 $lvl2=2
CA53 A:49 VDD!:20 5.91807e-18 $lvl1=2 $lvl2=2
CA54 A:31 VDD!:16 5.86668e-18 $lvl1=3 $lvl2=2
CA55 A:51 VDD! 5.20041e-18 $lvl1=2 $lvl2=1
CA56 A:31 VDD!:9 4.8682e-18 $lvl1=3 $lvl2=2
CA57 Mmp0@4:g VDD!:6 4.78532e-18 $lvl1=3 $lvl2=2
CA58 A:43 VDD!:6 4.68048e-18 $lvl1=3 $lvl2=2
CA59 A:31 VDD!:1 4.66154e-18 $lvl1=3 $lvl2=2
CA60 A:49 VDD!:16 4.30923e-18 $lvl1=2 $lvl2=2
CA61 A:31 VDD!:20 4.02463e-18 $lvl1=3 $lvl2=2
CA62 Mmp0@1:g VDD!:6 3.54615e-18 $lvl1=3 $lvl2=2
CA63 Mmp0@5:g VDD!:17 3.41203e-18 $lvl1=3 $lvl2=2
CA64 A:49 VDD!:9 3.4097e-18 $lvl1=2 $lvl2=2
CA65 A VDD!:23 3.04761e-18 $lvl1=1 $lvl2=1
CA66 A:47 VDD!:4 2.74626e-18 $lvl1=3 $lvl2=2
CA67 A:49 VDD!:1 2.61384e-18 $lvl1=2 $lvl2=2
CA68 A:51 VDD!:1 2.36882e-18 $lvl1=2 $lvl2=2
CA69 Mmp0@5:g VDD!:6 1.65958e-18 $lvl1=3 $lvl2=2
CA70 A VDD!:24 1.41489e-18 $lvl1=1 $lvl2=1
CA71 Mmp0@4:g VDD!:20 1.347e-18 $lvl1=3 $lvl2=2
CA72 A:47 VDD!:9 1.26683e-18 $lvl1=3 $lvl2=2
CA73 Mmp0@1:g VDD!:4 1.07614e-18 $lvl1=3 $lvl2=2
CA74 A:50 VDD!:9 1.05472e-18 $lvl1=2 $lvl2=2
CA75 A:47 VDD!:6 9.94e-19 $lvl1=3 $lvl2=2
CA76 Mmp0@5:g VDD!:16 9.86416e-19 $lvl1=3 $lvl2=2
CA77 A:31 Mmp0@5:s 8.98811e-19 $lvl1=3 $lvl2=4
CA78 Mmp0@4:g VDD!:17 8.79268e-19 $lvl1=3 $lvl2=2
CA79 Mmp0@1:g VDD!:1 8.47318e-19 $lvl1=3 $lvl2=2
CA80 A:41 VDD!:9 8.28898e-19 $lvl1=3 $lvl2=2
CA81 A:43 VDD!:16 8.25383e-19 $lvl1=3 $lvl2=2
CA82 A:54 VDD!:1 8.22196e-19 $lvl1=1 $lvl2=2
CA83 A:31 Mmp0@3:s 7.82123e-19 $lvl1=3 $lvl2=4
CA84 A:31 VDD! 3.52294e-17 $lvl1=3 $lvl2=1
CA85 A:41 VDD!:16 1.84836e-16 $lvl1=3 $lvl2=2
CA86 A:49 VDD! 1.85001e-17 $lvl1=2 $lvl2=1
CA87 Mmp0@1:g VDD!:9 1.88916e-16 $lvl1=3 $lvl2=2
CA88 Mmp0@5:g VDD!:20 1.89633e-16 $lvl1=3 $lvl2=2
CA89 A:43 VDD!:9 1.87906e-16 $lvl1=3 $lvl2=2
CA90 Mmp0@4:g VDD!:16 1.84484e-16 $lvl1=3 $lvl2=2
CA91 A:47 VDD!:1 1.88113e-16 $lvl1=3 $lvl2=2
CA92 A VDD!:9 1.33508e-17 $lvl1=1 $lvl2=2
CA93 A VDD! 2.15509e-17 $lvl1=1 $lvl2=1
CA94 A:31 Y:6 9.77982e-18 $lvl1=3 $lvl2=2
CA95 A:31 Y:24 9.48119e-18 $lvl1=3 $lvl2=1
CA96 A Y:1 7.93367e-18 $lvl1=1 $lvl2=2
CA97 A:49 Y:6 7.46185e-18 $lvl1=2 $lvl2=2
CA98 A:31 Y 7.46041e-18 $lvl1=3 $lvl2=1
CA99 A:54 Y:6 6.89584e-18 $lvl1=1 $lvl2=2
CA100 A Y:24 6.78504e-18 $lvl1=1 $lvl2=1
CA101 A Y:5 6.15757e-18 $lvl1=1 $lvl2=2
CA102 A Y:26 5.11194e-18 $lvl1=1 $lvl2=1
CA103 A Y:25 4.48921e-18 $lvl1=1 $lvl2=1
CA104 A:54 Y 4.39348e-18 $lvl1=1 $lvl2=1
CA105 A Y:23 4.10045e-18 $lvl1=1 $lvl2=1
CA106 A:49 Y:20 3.56676e-18 $lvl1=2 $lvl2=2
CA107 A:31 Y:16 2.72524e-18 $lvl1=3 $lvl2=2
CA108 A:31 Y:11 2.63199e-18 $lvl1=3 $lvl2=2
CA109 A:49 Y:16 2.58964e-18 $lvl1=2 $lvl2=2
CA110 A:49 Y:15 2.54666e-18 $lvl1=2 $lvl2=2
CA111 A:31 Y:15 2.51315e-18 $lvl1=3 $lvl2=2
CA112 A Y:11 2.49477e-18 $lvl1=1 $lvl2=2
CA113 A:31 Y:20 2.25667e-18 $lvl1=3 $lvl2=2
CA114 A:50 Y:6 2.17858e-18 $lvl1=2 $lvl2=2
CA115 A:31 Y:1 2.07818e-18 $lvl1=3 $lvl2=2
CA116 A:31 Y:5 2.06923e-18 $lvl1=3 $lvl2=2
CA117 A Y:15 1.88179e-18 $lvl1=1 $lvl2=2
CA118 A:31 Mmn0:d 1.76972e-18 $lvl1=3 $lvl2=4
CA119 A:49 Y:11 1.71284e-18 $lvl1=2 $lvl2=2
CA120 A:49 Y:5 1.65287e-18 $lvl1=2 $lvl2=2
CA121 A:49 Y:25 1.64135e-18 $lvl1=2 $lvl2=1
CA122 A:50 Y 1.18394e-18 $lvl1=2 $lvl2=1
CA123 A Y:6 1.14796e-18 $lvl1=1 $lvl2=2
CA124 A:49 Y:1 1.13134e-18 $lvl1=2 $lvl2=2
CA125 Mmp0@5:g Y:20 1.11807e-18 $lvl1=3 $lvl2=2
CA126 A:51 Y:6 1.11223e-18 $lvl1=2 $lvl2=2
CA127 A:49 Y:21 1.10187e-18 $lvl1=2 $lvl2=1
CA128 A:49 Y:23 9.98686e-19 $lvl1=2 $lvl2=1
CA129 A Y:21 9.75295e-19 $lvl1=1 $lvl2=1
CA130 A:41 Y:15 8.94906e-19 $lvl1=3 $lvl2=2
CA131 A:47 Y:5 8.53498e-19 $lvl1=3 $lvl2=2
CA132 Mmp0@4:g Y:20 8.1951e-19 $lvl1=3 $lvl2=2
CA133 Mmp0@1:g Y:5 8.12279e-19 $lvl1=3 $lvl2=2
CA134 A:31 Mmp0@4:d 7.81249e-19 $lvl1=3 $lvl2=4
CA135 A:46 Y:10 7.4361e-19 $lvl1=3 $lvl2=2
CA136 Mmn0@1:g Y:10 7.19144e-19 $lvl1=3 $lvl2=2
CA137 A:31 Mmp0@2:d 7.1538e-19 $lvl1=3 $lvl2=4
CA138 A:50 Y:5 6.79028e-19 $lvl1=2 $lvl2=2
CA139 A:43 Y:1 6.41838e-19 $lvl1=3 $lvl2=2
CA140 A:43 Y:15 6.20701e-19 $lvl1=3 $lvl2=2
CA141 A:31 Y:25 6.12018e-19 $lvl1=3 $lvl2=1
CA142 A:31 Mmp0:d 5.98086e-19 $lvl1=3 $lvl2=4
CA143 A:54 Y:25 2.55096e-17 $lvl1=1 $lvl2=1
CA144 Mmp0@1:g Y:1 1.83214e-16 $lvl1=3 $lvl2=2
CA145 Mmn0@1:g Y:6 1.2804e-16 $lvl1=3 $lvl2=2
CA146 A:54 Y:24 1.23785e-17 $lvl1=1 $lvl2=1
CA147 Mmp0@5:g Y:16 1.892e-16 $lvl1=3 $lvl2=2
CA148 A:41 Y:11 1.8896e-16 $lvl1=3 $lvl2=2
CA149 A:43 Y:11 1.86437e-16 $lvl1=3 $lvl2=2
CA150 A:47 Y:1 1.8593e-16 $lvl1=3 $lvl2=2
CA151 A Y:27 1.00135e-17 $lvl1=1 $lvl2=1
CA152 A:46 Y:6 1.27119e-16 $lvl1=3 $lvl2=2
CA153 A:49 Y:24 2.16852e-17 $lvl1=2 $lvl2=1
CA154 Mmp0@4:g Y:16 1.86796e-16 $lvl1=3 $lvl2=2
CA155 A Y 2.28666e-17 $lvl1=1 $lvl2=1
CA156 A:49 Y 3.44096e-17 $lvl1=2 $lvl2=1
ReA1 A:52 A 0.310096 $metal1  $L=0.645 $W=0.260000 $SI_W=0.26 $TYPE=10 $DIR=1 $LLX=0.790000 $LLY=1.910000 $URX=1.050000 $URY=2.555000 $lvl=1
ReA2 A A:53 0.064904 $metal1  $L=0.135 $W=0.260000 $SI_W=0.26 $TYPE=10 $DIR=1 $LLX=0.805000 $LLY=1.775000 $URX=1.065000 $URY=1.910000 $lvl=1
ReA3 A:53 A:54 0.221154 $metal1  $L=0.46 $W=0.260000 $SI_W=0.26 $TYPE=10 $DIR=1 $LLX=0.790000 $LLY=1.315000 $URX=1.050000 $URY=1.775000 $lvl=1
RfA4 A:48 A:49 96.376472 $li  $L=1.28 $W=0.170000 $SI_W=0.17 $TYPE=10 $DIR=0 $LLX=1.550000 $LLY=1.690000 $URX=2.830000 $URY=1.860000 $lvl=2
RfA5 A:49 A:50 47.435295 $li  $L=0.63 $W=0.170000 $SI_W=0.17 $TYPE=10 $DIR=0 $LLX=0.920000 $LLY=1.690000 $URX=1.550000 $URY=1.860000 $lvl=2
RfA6 A:50 A:51 47.435295 $li  $L=0.63 $W=0.170000 $SI_W=0.17 $TYPE=10 $DIR=0 $LLX=0.290000 $LLY=1.690000 $URX=0.920000 $URY=1.860000 $lvl=2
RgA7 A:27 Mmp0@5:g 218.506668 $poly  $L=0.68 $W=0.150000 $SI_W=0.15 $TYPE=10 $DIR=1 $LLX=2.550000 $LLY=3.020000 $URX=2.700000 $URY=3.700000 $lvl=3
RgA8 Mmp0@5:g A:28 380.735352 $poly  $L=1.24475 $W=0.150000 $SI_W=0.15 $TYPE=10 $DIR=1 $LLX=2.550000 $LLY=1.775000 $URX=2.700000 $URY=3.020000 $lvl=3
RgA9 A:28 A:29 76.762962 $poly  $L=0.43 $W=0.270000 $SI_W=0.27 $TYPE=10 $DIR=0 $LLX=2.195000 $LLY=1.640000 $URX=2.625000 $URY=1.910000 $lvl=3
RgA10 A:29 A:30 76.762962 $poly  $L=0.43 $W=0.270000 $SI_W=0.27 $TYPE=10 $DIR=0 $LLX=1.765000 $LLY=1.640000 $URX=2.195000 $URY=1.910000 $lvl=3
RgA11 A:30 A:31 38.426109 $poly  $L=0.21525 $W=0.270000 $SI_W=0.27 $TYPE=10 $DIR=0 $LLX=1.550000 $LLY=1.640000 $URX=1.765000 $URY=1.910000 $lvl=3
RgA12 A:31 A:32 38.336849 $poly  $L=0.21475 $W=0.270000 $SI_W=0.27 $TYPE=10 $DIR=0 $LLX=1.335000 $LLY=1.640000 $URX=1.550000 $URY=1.910000 $lvl=3
RgA13 A:32 A:33 76.762962 $poly  $L=0.43 $W=0.270000 $SI_W=0.27 $TYPE=10 $DIR=0 $LLX=0.905000 $LLY=1.640000 $URX=1.335000 $URY=1.910000 $lvl=3
RgA14 A:33 A:34 76.762962 $poly  $L=0.43 $W=0.270000 $SI_W=0.27 $TYPE=10 $DIR=0 $LLX=0.475000 $LLY=1.640000 $URX=0.905000 $URY=1.910000 $lvl=3
RgA15 A:34 A:35 29.500185 $poly  $L=0.16525 $W=0.270000 $SI_W=0.27 $TYPE=10 $DIR=0 $LLX=0.310000 $LLY=1.640000 $URX=0.475000 $URY=1.910000 $lvl=3
RgA16 A:28 A:36 88.411301 $poly  $L=0.33525 $W=0.150000 $SI_W=0.15 $TYPE=10 $DIR=1 $LLX=2.550000 $LLY=1.440000 $URX=2.700000 $URY=1.775000 $lvl=3
RgA17 A:28 A:37 29.321667 $poly  $L=0.16425 $W=0.270000 $SI_W=0.27 $TYPE=10 $DIR=0 $LLX=2.625000 $LLY=1.640000 $URX=2.789000 $URY=1.910000 $lvl=3
RgA18 A:29 A:38 88.411301 $poly  $L=0.33525 $W=0.150000 $SI_W=0.15 $TYPE=10 $DIR=1 $LLX=2.120000 $LLY=1.440000 $URX=2.270000 $URY=1.775000 $lvl=3
RgA19 A:29 Mmp0@4:g 380.735352 $poly  $L=1.24475 $W=0.150000 $SI_W=0.15 $TYPE=10 $DIR=1 $LLX=2.120000 $LLY=1.775000 $URX=2.270000 $URY=3.020000 $lvl=3
RgA20 Mmp0@4:g A:39 218.506668 $poly  $L=0.68 $W=0.150000 $SI_W=0.15 $TYPE=10 $DIR=1 $LLX=2.120000 $LLY=3.020000 $URX=2.270000 $URY=3.700000 $lvl=3
RgA21 A:30 A:40 88.411301 $poly  $L=0.33525 $W=0.150000 $SI_W=0.15 $TYPE=10 $DIR=1 $LLX=1.690000 $LLY=1.440000 $URX=1.840000 $URY=1.775000 $lvl=3
RgA22 A:30 Mmp0@3:g 380.735352 $poly  $L=1.24475 $W=0.150000 $SI_W=0.15 $TYPE=10 $DIR=1 $LLX=1.690000 $LLY=1.775000 $URX=1.840000 $URY=3.020000 $lvl=3
RgA23 Mmp0@3:g A:41 218.506668 $poly  $L=0.68 $W=0.150000 $SI_W=0.15 $TYPE=10 $DIR=1 $LLX=1.690000 $LLY=3.020000 $URX=1.840000 $URY=3.700000 $lvl=3
RgA24 A:32 A:42 88.411301 $poly  $L=0.33525 $W=0.150000 $SI_W=0.15 $TYPE=10 $DIR=1 $LLX=1.260000 $LLY=1.440000 $URX=1.410000 $URY=1.775000 $lvl=3
RgA25 A:32 Mmp0@2:g 380.735352 $poly  $L=1.24475 $W=0.150000 $SI_W=0.15 $TYPE=10 $DIR=1 $LLX=1.260000 $LLY=1.775000 $URX=1.410000 $URY=3.020000 $lvl=3
RgA26 Mmp0@2:g A:43 218.506668 $poly  $L=0.68 $W=0.150000 $SI_W=0.15 $TYPE=10 $DIR=1 $LLX=1.260000 $LLY=3.020000 $URX=1.410000 $URY=3.700000 $lvl=3
RgA27 A:33 Mmn0@1:g 239.437958 $poly  $L=0.80525 $W=0.150000 $SI_W=0.15 $TYPE=10 $DIR=1 $LLX=0.830000 $LLY=0.970000 $URX=0.980000 $URY=1.775000 $lvl=3
RgA28 Mmn0@1:g A:44 170.306671 $poly  $L=0.53 $W=0.150000 $SI_W=0.15 $TYPE=10 $DIR=1 $LLX=0.830000 $LLY=0.440000 $URX=0.980000 $URY=0.970000 $lvl=3
RgA29 A:33 Mmp0@1:g 380.735352 $poly  $L=1.24475 $W=0.150000 $SI_W=0.15 $TYPE=10 $DIR=1 $LLX=0.830000 $LLY=1.775000 $URX=0.980000 $URY=3.020000 $lvl=3
RgA30 Mmp0@1:g A:45 218.506668 $poly  $L=0.68 $W=0.150000 $SI_W=0.15 $TYPE=10 $DIR=1 $LLX=0.830000 $LLY=3.020000 $URX=0.980000 $URY=3.700000 $lvl=3
RgA31 A:34 Mmn0:g 239.437958 $poly  $L=0.80525 $W=0.150000 $SI_W=0.15 $TYPE=10 $DIR=1 $LLX=0.400000 $LLY=0.970000 $URX=0.550000 $URY=1.775000 $lvl=3
RgA32 Mmn0:g A:46 170.306671 $poly  $L=0.53 $W=0.150000 $SI_W=0.15 $TYPE=10 $DIR=1 $LLX=0.400000 $LLY=0.440000 $URX=0.550000 $URY=0.970000 $lvl=3
RgA33 A:34 Mmp0:g 380.735352 $poly  $L=1.24475 $W=0.150000 $SI_W=0.15 $TYPE=10 $DIR=1 $LLX=0.400000 $LLY=1.775000 $URX=0.550000 $URY=3.020000 $lvl=3
RgA34 Mmp0:g A:47 218.506668 $poly  $L=0.68 $W=0.150000 $SI_W=0.15 $TYPE=10 $DIR=1 $LLX=0.400000 $LLY=3.020000 $URX=0.550000 $URY=3.700000 $lvl=3
RjA35 A:50 A:53 152.000000 $mcon  $L=0.17 $W=0.17 $A=0.0289 $VC=0 $SAVL=0 $SAVC=0 $SI_A=0.0289 $COVER_DIR=0 $LLX=0.000000 $LLY=0.000000 $URX=0.170000 $URY=0.170000 $lvl=6
RiA36 A:31 A:49 2.500000 $licon  $A=0.1734 $VC=0 $SAVL=0 $SAVC=0 $SI_A=0.1734 $COVER_DIR=0 $LLX=0.000000 $LLY=0.000000 $URX=-0.173400 $URY=-6.000000 $lvl=7
*
*|NET VDD! 2.72529e-15
*|P (VDD! X 0 2.4150 4.1450) // $llx=2.4150 $lly=4.1450 $urx=2.4150 $ury=4.1450 $lvl=1
*|I (Mmp0:s Mmp0 s X 0 0.3995 3.0200) // $llx=0.3995 $lly=3.0200 $urx=0.3995 $ury=3.0200 $lvl=4
*|I (Mmp0:b Mmp0 b X 0 0.4750 3.0200) // $llx=0.4750 $lly=3.0200 $urx=0.4750 $ury=3.0200 $lvl=8
*|I (Mmp0@1:s Mmp0@1 s X 0 0.9805 3.0200) // $llx=0.9805 $lly=3.0200 $urx=0.9805 $ury=3.0200 $lvl=4
*|I (Mmp0@1:b Mmp0@1 b X 0 0.9050 3.0200) // $llx=0.9050 $lly=3.0200 $urx=0.9050 $ury=3.0200 $lvl=8
*|I (Mmp0@2:s Mmp0@2 s X 0 1.2595 3.0200) // $llx=1.2595 $lly=3.0200 $urx=1.2595 $ury=3.0200 $lvl=4
*|I (Mmp0@2:b Mmp0@2 b X 0 1.3350 3.0200) // $llx=1.3350 $lly=3.0200 $urx=1.3350 $ury=3.0200 $lvl=8
*|I (Mmp0@3:s Mmp0@3 s X 0 1.8405 3.0200) // $llx=1.8405 $lly=3.0200 $urx=1.8405 $ury=3.0200 $lvl=4
*|I (Mmp0@3:b Mmp0@3 b X 0 1.7650 3.0200) // $llx=1.7650 $lly=3.0200 $urx=1.7650 $ury=3.0200 $lvl=8
*|I (Mmp0@4:s Mmp0@4 s X 0 2.1195 3.0200) // $llx=2.1195 $lly=3.0200 $urx=2.1195 $ury=3.0200 $lvl=4
*|I (Mmp0@4:b Mmp0@4 b X 0 2.1950 3.0200) // $llx=2.1950 $lly=3.0200 $urx=2.1950 $ury=3.0200 $lvl=8
*|I (Mmp0@5:s Mmp0@5 s X 0 2.7005 3.0200) // $llx=2.7005 $lly=3.0200 $urx=2.7005 $ury=3.0200 $lvl=4
*|I (Mmp0@5:b Mmp0@5 b X 0 2.6250 3.0200) // $llx=2.6250 $lly=3.0200 $urx=2.6250 $ury=3.0200 $lvl=8
*|S (VDD!:1 0.2600 2.4900) // $llx=0.2600 $lly=2.4900 $urx=0.2600 $ury=2.4900 $lvl=2
*|S (VDD!:3 0.2600 3.0200) // $llx=0.2600 $lly=3.0200 $urx=0.2600 $ury=3.0200 $lvl=2
*|S (VDD!:4 0.2600 4.1400) // $llx=0.2600 $lly=4.1400 $urx=0.2600 $ury=4.1400 $lvl=2
*|S (VDD!:5 0.0000 4.1400) // $llx=0.0000 $lly=4.1400 $urx=0.0000 $ury=4.1400 $lvl=2
*|S (VDD!:6 1.1200 4.1400) // $llx=1.1200 $lly=4.1400 $urx=1.1200 $ury=4.1400 $lvl=2
*|S (VDD!:8 1.1200 3.0200) // $llx=1.1200 $lly=3.0200 $urx=1.1200 $ury=3.0200 $lvl=2
*|S (VDD!:9 1.1200 2.4900) // $llx=1.1200 $lly=2.4900 $urx=1.1200 $ury=2.4900 $lvl=2
*|S (VDD!:10 1.6100 4.1400) // $llx=1.6100 $lly=4.1400 $urx=1.6100 $ury=4.1400 $lvl=2
*|S (VDD!:11 1.6100 4.1400) // $llx=1.6100 $lly=4.1400 $urx=1.6100 $ury=4.1400 $lvl=4
*|S (VDD!:13 1.9800 4.1400) // $llx=1.9800 $lly=4.1400 $urx=1.9800 $ury=4.1400 $lvl=2
*|S (VDD!:15 1.9800 3.0200) // $llx=1.9800 $lly=3.0200 $urx=1.9800 $ury=3.0200 $lvl=2
*|S (VDD!:16 1.9800 2.4900) // $llx=1.9800 $lly=2.4900 $urx=1.9800 $ury=2.4900 $lvl=2
*|S (VDD!:17 2.8400 4.1400) // $llx=2.8400 $lly=4.1400 $urx=2.8400 $ury=4.1400 $lvl=2
*|S (VDD!:19 2.8400 3.0200) // $llx=2.8400 $lly=3.0200 $urx=2.8400 $ury=3.0200 $lvl=2
*|S (VDD!:20 2.8400 2.4900) // $llx=2.8400 $lly=2.4900 $urx=2.8400 $ury=2.4900 $lvl=2
*|S (VDD!:21 3.2195 4.1400) // $llx=3.2195 $lly=4.1400 $urx=3.2195 $ury=4.1400 $lvl=2
*|S (VDD!:22 3.2200 4.1400) // $llx=3.2200 $lly=4.1400 $urx=3.2200 $ury=4.1400 $lvl=1
*|S (VDD!:23 1.6100 4.1400) // $llx=1.6100 $lly=4.1400 $urx=1.6100 $ury=4.1400 $lvl=1
*|S (VDD!:24 0.0000 4.1400) // $llx=0.0000 $lly=4.1400 $urx=0.0000 $ury=4.1400 $lvl=1
CC1 Mmp0@5:s VSS! 1.043e-18 $lvl=4
CC2 Mmp0@3:s VSS! 4.29696e-19 $lvl=4
CC3 Mmp0@1:s VSS! 1.0041e-18 $lvl=4
CC4 Mmp0:s VSS! 1.57808e-18 $lvl=4
CC5 VDD!:23 VSS! 7.7559e-18 $lvl=1
CC6 VDD!:22 VSS! 4.27939e-18 $lvl=1
CC7 VDD!:24 VSS! 3.37583e-18 $lvl=1
CC8 VDD!:1 VSS! 5.47034e-18 $lvl=2
CC9 VDD!:9 VSS! 3.02251e-18 $lvl=2
CC10 VDD!:16 VSS! 3.22978e-18 $lvl=2
CC11 VDD!:20 VSS! 6.02289e-18 $lvl=2
CC12 VDD!:21 VSS! 1.41519e-18 $lvl=2
CC13 VDD!:17 VSS! 2.4025e-18 $lvl=2
CC14 VDD!:6 VSS! 2.07344e-18 $lvl=2
CC15 VDD!:4 VSS! 1.81783e-18 $lvl=2
CC16 VDD!:5 VSS! 1.30335e-18 $lvl=2
CC17 VDD!:11 VSS! 9.32202e-19 $lvl=4
CC18 VDD!:10 VSS! 1.58212e-18 $lvl=2
CC19 VDD! VSS! 1.04157e-18 $lvl=1
CC20 VDD!:1 VSS!:12 2.04854e-18 $lvl1=2 $lvl2=2
CC21 VDD!:23 VSS!:14 1.82128e-18 $lvl1=1 $lvl2=1
CC22 VDD!:1 VSS!:14 1.11987e-18 $lvl1=2 $lvl2=1
CC23 VDD! VSS!:1 9.72586e-19 $lvl1=1 $lvl2=2
CC24 VDD!:24 VSS!:14 8.30735e-19 $lvl1=1 $lvl2=1
CC25 VDD!:23 VSS!:15 6.75217e-19 $lvl1=1 $lvl2=1
CC26 VDD!:1 VSS!:15 6.65887e-19 $lvl1=2 $lvl2=1
CC27 VDD!:23 VSS!:4 5.79104e-19 $lvl1=1 $lvl2=2
CC28 VDD!:20 VSS!:14 5.56992e-19 $lvl1=2 $lvl2=1
CC29 VDD!:1 Mmn0:s 5.07256e-19 $lvl1=2 $lvl2=4
CC30 VDD!:23 VSS!:13 5.06849e-19 $lvl1=1 $lvl2=1
CC31 VDD!:22 VSS!:14 4.97597e-19 $lvl1=1 $lvl2=1
CC32 Mmp0:s VSS!:5 4.72976e-19 $lvl1=4 $lvl2=2
CC33 VDD!:1 VSS!:5 3.94156e-19 $lvl1=2 $lvl2=2
CC34 VDD!:20 VSS!:13 3.94013e-19 $lvl1=2 $lvl2=1
CC35 Mmp0@5:s VSS!:4 3.78751e-19 $lvl1=4 $lvl2=2
CC36 VDD!:23 VSS!:12 3.67784e-19 $lvl1=1 $lvl2=2
CC37 Mmp0:s VSS!:12 2.914e-19 $lvl1=4 $lvl2=2
CC38 VDD!:22 VSS!:4 2.78203e-19 $lvl1=1 $lvl2=2
CC39 VDD! VSS!:12 3.22274e-17 $lvl1=1 $lvl2=2
CC40 VDD! VSS!:4 8.94354e-17 $lvl1=1 $lvl2=2
CC41 VDD! VSS!:5 2.6657e-17 $lvl1=1 $lvl2=2
CC42 VDD! VSS!:6 1.04898e-17 $lvl1=1 $lvl2=2
CC43 VDD! VSS!:14 9.91456e-17 $lvl1=1 $lvl2=1
CC44 VDD! VSS!:13 3.03761e-17 $lvl1=1 $lvl2=1
CC45 VDD! VSS!:15 3.57169e-17 $lvl1=1 $lvl2=1
CC46 VDD! VSS!:7 8.99912e-18 $lvl1=1 $lvl2=2
ReC68 VDD!:22 VDD! 0.251563 $metal1  $L=0.805 $W=0.400000 $SI_W=0.4 $TYPE=10 $DIR=0 $LLX=2.415000 $LLY=3.940000 $URX=3.220000 $URY=4.340000 $lvl=1
ReC69 VDD! VDD!:23 0.251563 $metal1  $L=0.805 $W=0.400000 $SI_W=0.4 $TYPE=10 $DIR=0 $LLX=1.610000 $LLY=3.940000 $URX=2.415000 $URY=4.340000 $lvl=1
ReC70 VDD!:23 VDD!:24 0.503125 $metal1  $L=1.61 $W=0.400000 $SI_W=0.4 $TYPE=10 $DIR=0 $LLX=0.000000 $LLY=3.940000 $URX=1.610000 $URY=4.340000 $lvl=1
RfC71 VDD!:1 VDD!:3 39.905884 $li  $L=0.53 $W=0.170000 $SI_W=0.17 $TYPE=10 $DIR=1 $LLX=0.175000 $LLY=2.490000 $URX=0.345000 $URY=3.020000 $lvl=2
RfC72 VDD!:3 VDD!:4 81.330444 $li  $L=1.12025 $W=0.170000 $SI_W=0.17 $TYPE=10 $DIR=1 $LLX=0.175000 $LLY=3.020000 $URX=0.345000 $URY=4.140000 $lvl=2
RfC73 VDD!:4 VDD!:5 13.324800 $li  $L=0.26025 $W=0.250000 $SI_W=0.25 $TYPE=10 $DIR=0 $LLX=0.000000 $LLY=4.015000 $URX=0.260000 $URY=4.265000 $lvl=2
RfC74 VDD!:4 VDD!:6 44.031998 $li  $L=0.86 $W=0.250000 $SI_W=0.25 $TYPE=10 $DIR=0 $LLX=0.260000 $LLY=4.015000 $URX=1.120000 $URY=4.265000 $lvl=2
RfC75 VDD!:6 VDD!:8 81.330444 $li  $L=1.12025 $W=0.170000 $SI_W=0.17 $TYPE=10 $DIR=1 $LLX=1.035000 $LLY=3.020000 $URX=1.205000 $URY=4.140000 $lvl=2
RfC76 VDD!:8 VDD!:9 39.905884 $li  $L=0.53 $W=0.170000 $SI_W=0.17 $TYPE=10 $DIR=1 $LLX=1.035000 $LLY=2.490000 $URX=1.205000 $URY=3.020000 $lvl=2
RfC77 VDD!:6 VDD!:10 25.075199 $li  $L=0.48975 $W=0.250000 $SI_W=0.25 $TYPE=10 $DIR=0 $LLX=1.120000 $LLY=4.015000 $URX=1.610000 $URY=4.265000 $lvl=2
RfC78 VDD!:10 VDD!:13 18.956799 $li  $L=0.37025 $W=0.250000 $SI_W=0.25 $TYPE=10 $DIR=0 $LLX=1.610000 $LLY=4.015000 $URX=1.980000 $URY=4.265000 $lvl=2
RfC79 VDD!:13 VDD!:15 81.330444 $li  $L=1.12025 $W=0.170000 $SI_W=0.17 $TYPE=10 $DIR=1 $LLX=1.895000 $LLY=3.020000 $URX=2.065000 $URY=4.140000 $lvl=2
RfC80 VDD!:15 VDD!:16 39.905884 $li  $L=0.53 $W=0.170000 $SI_W=0.17 $TYPE=10 $DIR=1 $LLX=1.895000 $LLY=2.490000 $URX=2.065000 $URY=3.020000 $lvl=2
RfC81 VDD!:13 VDD!:17 44.031998 $li  $L=0.86 $W=0.250000 $SI_W=0.25 $TYPE=10 $DIR=0 $LLX=1.980000 $LLY=4.015000 $URX=2.840000 $URY=4.265000 $lvl=2
RfC82 VDD!:17 VDD!:19 81.330444 $li  $L=1.12025 $W=0.170000 $SI_W=0.17 $TYPE=10 $DIR=1 $LLX=2.755000 $LLY=3.020000 $URX=2.925000 $URY=4.140000 $lvl=2
RfC83 VDD!:19 VDD!:20 39.905884 $li  $L=0.53 $W=0.170000 $SI_W=0.17 $TYPE=10 $DIR=1 $LLX=2.755000 $LLY=2.490000 $URX=2.925000 $URY=3.020000 $lvl=2
RfC84 VDD!:17 VDD!:21 19.417599 $li  $L=0.37925 $W=0.250000 $SI_W=0.25 $TYPE=10 $DIR=0 $LLX=2.840000 $LLY=4.015000 $URX=3.219000 $URY=4.265000 $lvl=2
Rh_1_C85 VDD!:11 VDD!:10 2.500000 $licon_diff  $A=0.1734 $VC=0 $SAVL=0 $SAVC=0 $SI_A=0.1734 $COVER_DIR=0 $LLX=0.000000 $LLY=0.000000 $URX=-0.173400 $URY=-6.000000 $lvl=5
Rh_2_C86 Mmp0:s VDD!:3 5.000000 $licon_diff  $A=0.0867 $VC=0 $SAVL=0 $SAVC=0 $SI_A=0.0867 $COVER_DIR=0 $LLX=0.000000 $LLY=0.000000 $URX=-0.086700 $URY=-3.000000 $lvl=5
Rh_2_C87 Mmp0@1:s VDD!:8 5.000000 $licon_diff  $A=0.0867 $VC=0 $SAVL=0 $SAVC=0 $SI_A=0.0867 $COVER_DIR=0 $LLX=0.000000 $LLY=0.000000 $URX=-0.086700 $URY=-3.000000 $lvl=5
Rh_2_C88 Mmp0@3:s VDD!:15 5.000000 $licon_diff  $A=0.0867 $VC=0 $SAVL=0 $SAVC=0 $SI_A=0.0867 $COVER_DIR=0 $LLX=0.000000 $LLY=0.000000 $URX=-0.086700 $URY=-3.000000 $lvl=5
Rh_2_C89 Mmp0@5:s VDD!:19 5.000000 $licon_diff  $A=0.0867 $VC=0 $SAVL=0 $SAVC=0 $SI_A=0.0867 $COVER_DIR=0 $LLX=0.000000 $LLY=0.000000 $URX=-0.086700 $URY=-3.000000 $lvl=5
RjC90 VDD!:10 VDD!:23 25.333334 $mcon  $A=0.1734 $VC=0 $SAVL=0 $SAVC=0 $SI_A=0.1734 $COVER_DIR=0 $LLX=0.000000 $LLY=0.000000 $URX=-0.173400 $URY=-6.000000 $lvl=6
RmwC91 Mmp0:b VDD! 0.001000 $FOX $W=1000000 $SI_W=1000000 $TYPE=1 $DIR=0
RmwC92 Mmp0@1:b VDD! 0.001000 $FOX $W=1000000 $SI_W=1000000 $TYPE=1 $DIR=0
RmwC93 Mmp0@2:s Mmp0@1:s 0.001000 $diff $W=1000000 $SI_W=1000000 $TYPE=1 $DIR=0
RmwC94 Mmp0@2:b VDD! 0.001000 $FOX $W=1000000 $SI_W=1000000 $TYPE=1 $DIR=0
RmwC95 Mmp0@3:b VDD! 0.001000 $FOX $W=1000000 $SI_W=1000000 $TYPE=1 $DIR=0
RmwC96 Mmp0@4:s Mmp0@3:s 0.001000 $diff $W=1000000 $SI_W=1000000 $TYPE=1 $DIR=0
RmwC97 Mmp0@4:b VDD! 0.001000 $FOX $W=1000000 $SI_W=1000000 $TYPE=1 $DIR=0
RmwC98 Mmp0@5:b VDD! 0.001000 $FOX $W=1000000 $SI_W=1000000 $TYPE=1 $DIR=0
*
*|NET VSS! 1.27126e-15
*|P (VSS! X 0 2.4150 0.0050) // $llx=2.4150 $lly=0.0050 $urx=2.4150 $ury=0.0050 $lvl=1
*|I (Mmn0:s Mmn0 s X 0 0.3995 0.9700) // $llx=0.3995 $lly=0.9700 $urx=0.3995 $ury=0.9700 $lvl=4
*|I (Mmn0:b Mmn0 b X 0 0.4750 0.9700) // $llx=0.4750 $lly=0.9700 $urx=0.4750 $ury=0.9700 $lvl=8
*|I (Mmn0@1:s Mmn0@1 s X 0 0.9805 0.9700) // $llx=0.9805 $lly=0.9700 $urx=0.9805 $ury=0.9700 $lvl=4
*|I (Mmn0@1:b Mmn0@1 b X 0 0.9050 0.9700) // $llx=0.9050 $lly=0.9700 $urx=0.9050 $ury=0.9700 $lvl=8
*|S (VSS!:1 1.1200 1.3500) // $llx=1.1200 $lly=1.3500 $urx=1.1200 $ury=1.3500 $lvl=2
*|S (VSS!:3 1.1200 0.9700) // $llx=1.1200 $lly=0.9700 $urx=1.1200 $ury=0.9700 $lvl=2
*|S (VSS!:4 1.1200 0.0000) // $llx=1.1200 $lly=0.0000 $urx=1.1200 $ury=0.0000 $lvl=2
*|S (VSS!:5 0.2600 0.0000) // $llx=0.2600 $lly=0.0000 $urx=0.2600 $ury=0.0000 $lvl=2
*|S (VSS!:6 0.0000 0.0000) // $llx=0.0000 $lly=0.0000 $urx=0.0000 $ury=0.0000 $lvl=2
*|S (VSS!:7 1.6100 0.0000) // $llx=1.6100 $lly=0.0000 $urx=1.6100 $ury=0.0000 $lvl=2
*|S (VSS!:8 1.6100 0.0000) // $llx=1.6100 $lly=0.0000 $urx=1.6100 $ury=0.0000 $lvl=4
*|S (VSS!:11 0.2600 0.9700) // $llx=0.2600 $lly=0.9700 $urx=0.2600 $ury=0.9700 $lvl=2
*|S (VSS!:12 0.2600 1.3500) // $llx=0.2600 $lly=1.3500 $urx=0.2600 $ury=1.3500 $lvl=2
*|S (VSS!:13 3.2200 0.0000) // $llx=3.2200 $lly=0.0000 $urx=3.2200 $ury=0.0000 $lvl=1
*|S (VSS!:14 1.6100 0.0000) // $llx=1.6100 $lly=0.0000 $urx=1.6100 $ury=0.0000 $lvl=1
*|S (VSS!:15 0.0000 0.0000) // $llx=0.0000 $lly=0.0000 $urx=0.0000 $ury=0.0000 $lvl=1
ReD99 VSS!:13 VSS! 0.251563 $metal1  $L=0.805 $W=0.400000 $SI_W=0.4 $TYPE=10 $DIR=0 $LLX=2.415000 $LLY=-0.199500 $URX=3.220000 $URY=0.200000 $lvl=1
ReD100 VSS! VSS!:14 0.251563 $metal1  $L=0.805 $W=0.400000 $SI_W=0.4 $TYPE=10 $DIR=0 $LLX=1.610000 $LLY=-0.199500 $URX=2.415000 $URY=0.200000 $lvl=1
ReD101 VSS!:14 VSS!:15 0.503125 $metal1  $L=1.61 $W=0.400000 $SI_W=0.4 $TYPE=10 $DIR=0 $LLX=0.000000 $LLY=-0.199500 $URX=1.610000 $URY=0.200000 $lvl=1
RfD102 VSS!:1 VSS!:3 28.611765 $li  $L=0.38 $W=0.170000 $SI_W=0.17 $TYPE=10 $DIR=1 $LLX=1.035000 $LLY=0.970000 $URX=1.205000 $URY=1.350000 $lvl=2
RfD103 VSS!:3 VSS!:4 70.010727 $li  $L=0.96975 $W=0.170000 $SI_W=0.17 $TYPE=10 $DIR=1 $LLX=1.035000 $LLY=0.000000 $URX=1.205000 $URY=0.970000 $lvl=2
RfD104 VSS!:4 VSS!:5 44.031998 $li  $L=0.86 $W=0.250000 $SI_W=0.25 $TYPE=10 $DIR=0 $LLX=0.260000 $LLY=-0.124500 $URX=1.120000 $URY=0.125000 $lvl=2
RfD105 VSS!:5 VSS!:6 13.324800 $li  $L=0.26025 $W=0.250000 $SI_W=0.25 $TYPE=10 $DIR=0 $LLX=0.000000 $LLY=-0.124500 $URX=0.260000 $URY=0.125000 $lvl=2
RfD106 VSS!:4 VSS!:7 25.075199 $li  $L=0.48975 $W=0.250000 $SI_W=0.25 $TYPE=10 $DIR=0 $LLX=1.120000 $LLY=-0.124500 $URX=1.610000 $URY=0.125000 $lvl=2
RfD107 VSS!:5 VSS!:11 70.010727 $li  $L=0.96975 $W=0.170000 $SI_W=0.17 $TYPE=10 $DIR=1 $LLX=0.175000 $LLY=0.000000 $URX=0.345000 $URY=0.970000 $lvl=2
RfD108 VSS!:11 VSS!:12 28.611765 $li  $L=0.38 $W=0.170000 $SI_W=0.17 $TYPE=10 $DIR=1 $LLX=0.175000 $LLY=0.970000 $URX=0.345000 $URY=1.350000 $lvl=2
RhD109 Mmn0@1:s VSS!:3 7.500000 $licon_diff  $A=0.0578 $VC=0 $SAVL=0 $SAVC=0 $SI_A=0.0578 $COVER_DIR=0 $LLX=0.000000 $LLY=0.000000 $URX=-0.057800 $URY=-2.000000 $lvl=5
RhD110 Mmn0:s VSS!:11 7.500000 $licon_diff  $A=0.0578 $VC=0 $SAVL=0 $SAVC=0 $SI_A=0.0578 $COVER_DIR=0 $LLX=0.000000 $LLY=0.000000 $URX=-0.057800 $URY=-2.000000 $lvl=5
Rh_3_D111 VSS!:8 VSS!:7 2.500000 $licon_diff  $A=0.1734 $VC=0 $SAVL=0 $SAVC=0 $SI_A=0.1734 $COVER_DIR=0 $LLX=0.000000 $LLY=0.000000 $URX=-0.173400 $URY=-6.000000 $lvl=5
RjD112 VSS!:7 VSS!:14 25.333334 $mcon  $A=0.1734 $VC=0 $SAVL=0 $SAVC=0 $SI_A=0.1734 $COVER_DIR=0 $LLX=0.000000 $LLY=0.000000 $URX=-0.173400 $URY=-6.000000 $lvl=6
RmwD113 Mmn0:b VSS! 0.001000 $FOX $W=1000000 $SI_W=1000000 $TYPE=1 $DIR=0