*
*|DSPF 1.5
*
*|DATE "Wed Jan  8 22:45:33 2025"
*|VENDOR "Cadence Design Systems"
*|PROGRAM "Cadence Quantus Extraction"
*|VERSION "22.1.0-p089 Linux 64 bit - (Thu Jan 19 11:47:08 PST 2023)"
*|DESIGN CLKINVX8_HS
*|DIVIDER /
*|DELIMITER :
*|DeviceFingerDelim "@"
*|BUSBIT []
*|GLOBAL_TEMPERATURE 25
*|OPERATING_TEMPERATURE 25

** *VIA_COVERAGE_CODES
** *index FF FS FP FU SF SS SP SU PF PS PP PU UF US UP UU X_by_Y
** * "FF" stands for Full landing and Full coverage
** *0 0 0 0 0 0 0 0 0 0 0 0 0 0 0 0 0
** *1 0 0 0 0 0 0 0 0 0 0 0 0 0 0 0 1 1x1
** *2 0 0 0 0 0 0 0 0 0 0 0 0 0 0 1 0 1x1
** *3 0 0 0 0 0 0 0 0 0 0 0 0 0 1 0 0 1x1
** *4 0 0 0 0 0 0 0 0 0 0 0 0 1 0 0 0 1x1
** *5 0 0 0 0 0 0 0 0 0 0 0 1 0 0 0 0 1x1
** *6 0 0 0 0 0 0 0 0 0 0 1 0 0 0 0 0 1x1
** *7 0 0 0 0 0 0 0 0 0 1 0 0 0 0 0 0 1x1
** *8 0 0 0 0 0 0 0 0 1 0 0 0 0 0 0 0 1x1
** *9 0 0 0 0 0 0 0 1 0 0 0 0 0 0 0 0 1x1
** *10 0 0 0 0 0 0 1 0 0 0 0 0 0 0 0 0 1x1
** *11 0 0 0 0 0 1 0 0 0 0 0 0 0 0 0 0 1x1
** *12 0 0 0 0 1 0 0 0 0 0 0 0 0 0 0 0 1x1
** *13 0 0 0 1 0 0 0 0 0 0 0 0 0 0 0 0 1x1
** *14 0 0 1 0 0 0 0 0 0 0 0 0 0 0 0 0 1x1
** *15 0 1 0 0 0 0 0 0 0 0 0 0 0 0 0 0 1x1
** *16 1 0 0 0 0 0 0 0 0 0 0 0 0 0 0 0 1x1

** *RESISTOR_TYPES
** *1 SHORTING_ELEMENT
** *2 PRES_NG
** *3 PRES_PG
** *4 PRES_NF
** *5 PRES_PF
** *6 TCN_NDIFF
** *7 TCN_PDIFF
** *8 TCN_NFIELD
** *9 TCN_PFIELD
** *10 QUALITY_EXTRACTED
** *11 GCNLAND
** *12 TCNLAND
** *13 DUMMY
** *14 RSD
** *15 BRIDGE

** *RESISTOR_CURRENT_DIRECTION
** *0 HORIZONTAL
** *1 VERTICAL
** *2 45 DEGREE

** QRC_TECH_DIR /vols/wfo_devel/projects/reference_SKY130/tech/sky130_release_0.0.4/quantus/extraction/typical 
** HIERARCHICAL_SPLIT_PINS_DELIMITER '%'
** caps2d version: 10
*
.SUBCKT  CLKINVX8_HS A Y
*
*Net Section
*
*|GROUND_NET VSS!
*
*LAYER_MAP
*0 none
*1 metal1
*2 li
*3 poly
*4 diff
*5 licon_diff
*6 mcon
*7 licon
*8 FOX

*|NET VDD! 9.70237e-15
*|P (VDD! X 0 4.8250 4.1450) // $llx=4.8250 $lly=4.1450 $urx=4.8250 $ury=4.1450 $lvl=1
*|I (Mmp0:s Mmp0 s X 0 0.3995 3.0200) // $llx=0.3995 $lly=3.0200 $urx=0.3995 $ury=3.0200 $lvl=4
*|I (Mmp0:b Mmp0 b X 0 0.4750 3.0200) // $llx=0.4750 $lly=3.0200 $urx=0.4750 $ury=3.0200 $lvl=8
*|I (Mmp0@1:s Mmp0@1 s X 0 0.9805 3.0200) // $llx=0.9805 $lly=3.0200 $urx=0.9805 $ury=3.0200 $lvl=4
*|I (Mmp0@1:b Mmp0@1 b X 0 0.9050 3.0200) // $llx=0.9050 $lly=3.0200 $urx=0.9050 $ury=3.0200 $lvl=8
*|I (Mmp0@2:s Mmp0@2 s X 0 1.2595 3.0200) // $llx=1.2595 $lly=3.0200 $urx=1.2595 $ury=3.0200 $lvl=4
*|I (Mmp0@2:b Mmp0@2 b X 0 1.3350 3.0200) // $llx=1.3350 $lly=3.0200 $urx=1.3350 $ury=3.0200 $lvl=8
*|I (Mmp0@3:s Mmp0@3 s X 0 1.8405 3.0200) // $llx=1.8405 $lly=3.0200 $urx=1.8405 $ury=3.0200 $lvl=4
*|I (Mmp0@3:b Mmp0@3 b X 0 1.7650 3.0200) // $llx=1.7650 $lly=3.0200 $urx=1.7650 $ury=3.0200 $lvl=8
*|I (Mmp0@4:s Mmp0@4 s X 0 2.1195 3.0200) // $llx=2.1195 $lly=3.0200 $urx=2.1195 $ury=3.0200 $lvl=4
*|I (Mmp0@4:b Mmp0@4 b X 0 2.1950 3.0200) // $llx=2.1950 $lly=3.0200 $urx=2.1950 $ury=3.0200 $lvl=8
*|I (Mmp0@5:s Mmp0@5 s X 0 2.7005 3.0200) // $llx=2.7005 $lly=3.0200 $urx=2.7005 $ury=3.0200 $lvl=4
*|I (Mmp0@5:b Mmp0@5 b X 0 2.6250 3.0200) // $llx=2.6250 $lly=3.0200 $urx=2.6250 $ury=3.0200 $lvl=8
*|I (Mmp0@6:s Mmp0@6 s X 0 2.9795 3.0200) // $llx=2.9795 $lly=3.0200 $urx=2.9795 $ury=3.0200 $lvl=4
*|I (Mmp0@6:b Mmp0@6 b X 0 3.0550 3.0200) // $llx=3.0550 $lly=3.0200 $urx=3.0550 $ury=3.0200 $lvl=8
*|I (Mmp0@7:s Mmp0@7 s X 0 3.5605 3.0200) // $llx=3.5605 $lly=3.0200 $urx=3.5605 $ury=3.0200 $lvl=4
*|I (Mmp0@7:b Mmp0@7 b X 0 3.4850 3.0200) // $llx=3.4850 $lly=3.0200 $urx=3.4850 $ury=3.0200 $lvl=8
*|I (Mmp0@8:s Mmp0@8 s X 0 3.8395 3.0200) // $llx=3.8395 $lly=3.0200 $urx=3.8395 $ury=3.0200 $lvl=4
*|I (Mmp0@8:b Mmp0@8 b X 0 3.9150 3.0200) // $llx=3.9150 $lly=3.0200 $urx=3.9150 $ury=3.0200 $lvl=8
*|I (Mmp0@9:s Mmp0@9 s X 0 4.4205 3.0200) // $llx=4.4205 $lly=3.0200 $urx=4.4205 $ury=3.0200 $lvl=4
*|I (Mmp0@9:b Mmp0@9 b X 0 4.3450 3.0200) // $llx=4.3450 $lly=3.0200 $urx=4.3450 $ury=3.0200 $lvl=8
*|I (Mmp0@10:s Mmp0@10 s X 0 4.6995 3.0200) // $llx=4.6995 $lly=3.0200 $urx=4.6995 $ury=3.0200 $lvl=4
*|I (Mmp0@10:b Mmp0@10 b X 0 4.7750 3.0200) // $llx=4.7750 $lly=3.0200 $urx=4.7750 $ury=3.0200 $lvl=8
*|I (Mmp0@11:s Mmp0@11 s X 0 5.2805 3.0200) // $llx=5.2805 $lly=3.0200 $urx=5.2805 $ury=3.0200 $lvl=4
*|I (Mmp0@11:b Mmp0@11 b X 0 5.2050 3.0200) // $llx=5.2050 $lly=3.0200 $urx=5.2050 $ury=3.0200 $lvl=8
*|I (Mmp0@12:s Mmp0@12 s X 0 5.5595 3.0200) // $llx=5.5595 $lly=3.0200 $urx=5.5595 $ury=3.0200 $lvl=4
*|I (Mmp0@12:b Mmp0@12 b X 0 5.6350 3.0200) // $llx=5.6350 $lly=3.0200 $urx=5.6350 $ury=3.0200 $lvl=8
*|I (Mmp0@13:s Mmp0@13 s X 0 6.1405 3.0200) // $llx=6.1405 $lly=3.0200 $urx=6.1405 $ury=3.0200 $lvl=4
*|I (Mmp0@13:b Mmp0@13 b X 0 6.0650 3.0200) // $llx=6.0650 $lly=3.0200 $urx=6.0650 $ury=3.0200 $lvl=8
*|I (Mmp0@14:s Mmp0@14 s X 0 6.4195 3.0200) // $llx=6.4195 $lly=3.0200 $urx=6.4195 $ury=3.0200 $lvl=4
*|I (Mmp0@14:b Mmp0@14 b X 0 6.4950 3.0200) // $llx=6.4950 $lly=3.0200 $urx=6.4950 $ury=3.0200 $lvl=8
*|I (Mmp0@15:s Mmp0@15 s X 0 7.0005 3.0200) // $llx=7.0005 $lly=3.0200 $urx=7.0005 $ury=3.0200 $lvl=4
*|I (Mmp0@15:b Mmp0@15 b X 0 6.9250 3.0200) // $llx=6.9250 $lly=3.0200 $urx=6.9250 $ury=3.0200 $lvl=8
*|I (Mmp0@16:s Mmp0@16 s X 0 7.2795 3.0200) // $llx=7.2795 $lly=3.0200 $urx=7.2795 $ury=3.0200 $lvl=4
*|I (Mmp0@16:b Mmp0@16 b X 0 7.3550 3.0200) // $llx=7.3550 $lly=3.0200 $urx=7.3550 $ury=3.0200 $lvl=8
*|I (Mmp0@17:s Mmp0@17 s X 0 7.8605 3.0200) // $llx=7.8605 $lly=3.0200 $urx=7.8605 $ury=3.0200 $lvl=4
*|I (Mmp0@17:b Mmp0@17 b X 0 7.7850 3.0200) // $llx=7.7850 $lly=3.0200 $urx=7.7850 $ury=3.0200 $lvl=8
*|I (Mmp0@18:s Mmp0@18 s X 0 8.1395 3.0200) // $llx=8.1395 $lly=3.0200 $urx=8.1395 $ury=3.0200 $lvl=4
*|I (Mmp0@18:b Mmp0@18 b X 0 8.2150 3.0200) // $llx=8.2150 $lly=3.0200 $urx=8.2150 $ury=3.0200 $lvl=8
*|I (Mmp0@19:s Mmp0@19 s X 0 8.7205 3.0200) // $llx=8.7205 $lly=3.0200 $urx=8.7205 $ury=3.0200 $lvl=4
*|I (Mmp0@19:b Mmp0@19 b X 0 8.6450 3.0200) // $llx=8.6450 $lly=3.0200 $urx=8.6450 $ury=3.0200 $lvl=8
*|I (Mmp0@20:s Mmp0@20 s X 0 8.9995 3.0200) // $llx=8.9995 $lly=3.0200 $urx=8.9995 $ury=3.0200 $lvl=4
*|I (Mmp0@20:b Mmp0@20 b X 0 9.0750 3.0200) // $llx=9.0750 $lly=3.0200 $urx=9.0750 $ury=3.0200 $lvl=8
*|I (Mmp0@21:s Mmp0@21 s X 0 9.5805 3.0200) // $llx=9.5805 $lly=3.0200 $urx=9.5805 $ury=3.0200 $lvl=4
*|I (Mmp0@21:b Mmp0@21 b X 0 9.5050 3.0200) // $llx=9.5050 $lly=3.0200 $urx=9.5050 $ury=3.0200 $lvl=8
*|I (Mmp0@22:s Mmp0@22 s X 0 9.8595 3.0200) // $llx=9.8595 $lly=3.0200 $urx=9.8595 $ury=3.0200 $lvl=4
*|I (Mmp0@22:b Mmp0@22 b X 0 9.9350 3.0200) // $llx=9.9350 $lly=3.0200 $urx=9.9350 $ury=3.0200 $lvl=8
*|I (Mmp0@23:s Mmp0@23 s X 0 10.4405 3.0200) // $llx=10.4405 $lly=3.0200 $urx=10.4405 $ury=3.0200 $lvl=4
*|I (Mmp0@23:b Mmp0@23 b X 0 10.3650 3.0200) // $llx=10.3650 $lly=3.0200 $urx=10.3650 $ury=3.0200 $lvl=8
*|S (VDD!:1 0.2600 2.4900) // $llx=0.2600 $lly=2.4900 $urx=0.2600 $ury=2.4900 $lvl=2
*|S (VDD!:3 0.2600 3.0200) // $llx=0.2600 $lly=3.0200 $urx=0.2600 $ury=3.0200 $lvl=2
*|S (VDD!:4 0.2600 4.1400) // $llx=0.2600 $lly=4.1400 $urx=0.2600 $ury=4.1400 $lvl=2
*|S (VDD!:5 1.1200 4.1400) // $llx=1.1200 $lly=4.1400 $urx=1.1200 $ury=4.1400 $lvl=2
*|S (VDD!:6 1.9800 4.1400) // $llx=1.9800 $lly=4.1400 $urx=1.9800 $ury=4.1400 $lvl=2
*|S (VDD!:7 2.8400 4.1400) // $llx=2.8400 $lly=4.1400 $urx=2.8400 $ury=4.1400 $lvl=2
*|S (VDD!:8 3.6800 4.1400) // $llx=3.6800 $lly=4.1400 $urx=3.6800 $ury=4.1400 $lvl=2
*|S (VDD!:9 3.6800 4.1400) // $llx=3.6800 $lly=4.1400 $urx=3.6800 $ury=4.1400 $lvl=4
*|S (VDD!:11 4.5600 4.1400) // $llx=4.5600 $lly=4.1400 $urx=4.5600 $ury=4.1400 $lvl=2
*|S (VDD!:12 5.4200 4.1400) // $llx=5.4200 $lly=4.1400 $urx=5.4200 $ury=4.1400 $lvl=2
*|S (VDD!:13 6.2800 4.1400) // $llx=6.2800 $lly=4.1400 $urx=6.2800 $ury=4.1400 $lvl=2
*|S (VDD!:14 7.1400 4.1400) // $llx=7.1400 $lly=4.1400 $urx=7.1400 $ury=4.1400 $lvl=2
*|S (VDD!:15 8.0000 4.1400) // $llx=8.0000 $lly=4.1400 $urx=8.0000 $ury=4.1400 $lvl=2
*|S (VDD!:16 8.9700 4.1400) // $llx=8.9700 $lly=4.1400 $urx=8.9700 $ury=4.1400 $lvl=2
*|S (VDD!:18 0.0000 4.1400) // $llx=0.0000 $lly=4.1400 $urx=0.0000 $ury=4.1400 $lvl=2
*|S (VDD!:20 1.1200 3.0200) // $llx=1.1200 $lly=3.0200 $urx=1.1200 $ury=3.0200 $lvl=2
*|S (VDD!:21 1.1200 2.4900) // $llx=1.1200 $lly=2.4900 $urx=1.1200 $ury=2.4900 $lvl=2
*|S (VDD!:23 1.9800 3.0200) // $llx=1.9800 $lly=3.0200 $urx=1.9800 $ury=3.0200 $lvl=2
*|S (VDD!:24 1.9800 2.4900) // $llx=1.9800 $lly=2.4900 $urx=1.9800 $ury=2.4900 $lvl=2
*|S (VDD!:26 2.8400 3.0200) // $llx=2.8400 $lly=3.0200 $urx=2.8400 $ury=3.0200 $lvl=2
*|S (VDD!:27 2.8400 2.4900) // $llx=2.8400 $lly=2.4900 $urx=2.8400 $ury=2.4900 $lvl=2
*|S (VDD!:29 3.7000 3.0200) // $llx=3.7000 $lly=3.0200 $urx=3.7000 $ury=3.0200 $lvl=2
*|S (VDD!:30 3.7000 2.4900) // $llx=3.7000 $lly=2.4900 $urx=3.7000 $ury=2.4900 $lvl=2
*|S (VDD!:32 4.5600 3.0200) // $llx=4.5600 $lly=3.0200 $urx=4.5600 $ury=3.0200 $lvl=2
*|S (VDD!:33 4.5600 2.4900) // $llx=4.5600 $lly=2.4900 $urx=4.5600 $ury=2.4900 $lvl=2
*|S (VDD!:35 5.4200 3.0200) // $llx=5.4200 $lly=3.0200 $urx=5.4200 $ury=3.0200 $lvl=2
*|S (VDD!:36 5.4200 2.4900) // $llx=5.4200 $lly=2.4900 $urx=5.4200 $ury=2.4900 $lvl=2
*|S (VDD!:38 6.2800 3.0200) // $llx=6.2800 $lly=3.0200 $urx=6.2800 $ury=3.0200 $lvl=2
*|S (VDD!:39 6.2800 2.4900) // $llx=6.2800 $lly=2.4900 $urx=6.2800 $ury=2.4900 $lvl=2
*|S (VDD!:41 7.1400 3.0200) // $llx=7.1400 $lly=3.0200 $urx=7.1400 $ury=3.0200 $lvl=2
*|S (VDD!:42 7.1400 2.4900) // $llx=7.1400 $lly=2.4900 $urx=7.1400 $ury=2.4900 $lvl=2
*|S (VDD!:44 8.0000 3.0200) // $llx=8.0000 $lly=3.0200 $urx=8.0000 $ury=3.0200 $lvl=2
*|S (VDD!:45 8.0000 2.4900) // $llx=8.0000 $lly=2.4900 $urx=8.0000 $ury=2.4900 $lvl=2
*|S (VDD!:47 8.8600 3.0200) // $llx=8.8600 $lly=3.0200 $urx=8.8600 $ury=3.0200 $lvl=2
*|S (VDD!:48 8.8600 2.4900) // $llx=8.8600 $lly=2.4900 $urx=8.8600 $ury=2.4900 $lvl=2
*|S (VDD!:49 9.7200 4.1400) // $llx=9.7200 $lly=4.1400 $urx=9.7200 $ury=4.1400 $lvl=2
*|S (VDD!:51 9.7200 3.0200) // $llx=9.7200 $lly=3.0200 $urx=9.7200 $ury=3.0200 $lvl=2
*|S (VDD!:52 9.7200 2.4900) // $llx=9.7200 $lly=2.4900 $urx=9.7200 $ury=2.4900 $lvl=2
*|S (VDD!:53 10.5800 4.1400) // $llx=10.5800 $lly=4.1400 $urx=10.5800 $ury=4.1400 $lvl=2
*|S (VDD!:55 10.5800 3.0200) // $llx=10.5800 $lly=3.0200 $urx=10.5800 $ury=3.0200 $lvl=2
*|S (VDD!:56 10.5800 2.4900) // $llx=10.5800 $lly=2.4900 $urx=10.5800 $ury=2.4900 $lvl=2
*|S (VDD!:57 11.0395 4.1400) // $llx=11.0395 $lly=4.1400 $urx=11.0395 $ury=4.1400 $lvl=2
*|S (VDD!:58 11.0400 4.1400) // $llx=11.0400 $lly=4.1400 $urx=11.0400 $ury=4.1400 $lvl=1
*|S (VDD!:59 8.9700 4.1400) // $llx=8.9700 $lly=4.1400 $urx=8.9700 $ury=4.1400 $lvl=1
*|S (VDD!:60 3.6800 4.1400) // $llx=3.6800 $lly=4.1400 $urx=3.6800 $ury=4.1400 $lvl=1
*|S (VDD!:61 0.0000 4.1400) // $llx=0.0000 $lly=4.1400 $urx=0.0000 $ury=4.1400 $lvl=1
CC1 Mmp0@23:s VSS! 1.41906e-18 $lvl=4
CC2 Mmp0@21:s VSS! 5.74617e-19 $lvl=4
CC3 Mmp0@19:s VSS! 9.9562e-19 $lvl=4
CC4 Mmp0@17:s VSS! 7.78826e-19 $lvl=4
CC5 Mmp0@15:s VSS! 8.83955e-19 $lvl=4
CC6 Mmp0@13:s VSS! 1.41366e-18 $lvl=4
CC7 Mmp0@11:s VSS! 1.17032e-18 $lvl=4
CC8 Mmp0@9:s VSS! 1.03516e-18 $lvl=4
CC9 Mmp0@7:s VSS! 1.06013e-18 $lvl=4
CC10 Mmp0@5:s VSS! 9.26696e-19 $lvl=4
CC11 Mmp0@3:s VSS! 1.19703e-18 $lvl=4
CC12 Mmp0@1:s VSS! 1.12917e-18 $lvl=4
CC13 Mmp0:s VSS! 1.18862e-18 $lvl=4
CC14 VDD!:60 VSS! 1.34581e-17 $lvl=1
CC15 VDD!:59 VSS! 9.85891e-18 $lvl=1
CC16 VDD!:58 VSS! 5.28335e-18 $lvl=1
CC17 VDD!:61 VSS! 5.51479e-18 $lvl=1
CC18 VDD!:55 VSS! 7.76855e-18 $lvl=2
CC19 VDD!:51 VSS! 5.34042e-18 $lvl=2
CC20 VDD!:44 VSS! 5.94166e-18 $lvl=2
CC21 VDD!:35 VSS! 4.60366e-18 $lvl=2
CC22 VDD!:29 VSS! 5.83611e-18 $lvl=2
CC23 VDD!:26 VSS! 5.55314e-18 $lvl=2
CC24 VDD!:20 VSS! 7.35231e-18 $lvl=2
CC25 VDD!:1 VSS! 6.41543e-18 $lvl=2
CC26 VDD!:24 VSS! 6.03838e-18 $lvl=2
CC27 VDD!:33 VSS! 3.77587e-18 $lvl=2
CC28 VDD!:39 VSS! 5.05443e-18 $lvl=2
CC29 VDD!:42 VSS! 3.33973e-18 $lvl=2
CC30 VDD!:48 VSS! 5.31969e-18 $lvl=2
CC31 VDD!:57 VSS! 2.15016e-18 $lvl=2
CC32 VDD!:53 VSS! 2.42964e-18 $lvl=2
CC33 VDD!:15 VSS! 2.59394e-18 $lvl=2
CC34 VDD!:14 VSS! 3.78409e-18 $lvl=2
CC35 VDD!:13 VSS! 3.1594e-18 $lvl=2
CC36 VDD!:12 VSS! 2.21058e-18 $lvl=2
CC37 VDD!:11 VSS! 2.11199e-18 $lvl=2
CC38 VDD!:6 VSS! 3.08364e-18 $lvl=2
CC39 VDD!:5 VSS! 2.73227e-18 $lvl=2
CC40 VDD!:4 VSS! 3.00491e-18 $lvl=2
CC41 VDD!:18 VSS! 1.60521e-18 $lvl=2
CC42 VDD!:9 VSS! 2.3994e-18 $lvl=4
CC43 VDD!:8 VSS! 3.24951e-18 $lvl=2
CC44 VDD!:16 VSS! 3.22313e-18 $lvl=2
CC45 VDD! VSS! 1.23105e-18 $lvl=1
CC46 VDD!:60 VSS!:29 6.5287e-18 $lvl1=1 $lvl2=1
CC47 VDD!:59 VSS!:28 3.2981e-18 $lvl1=1 $lvl2=1
CC48 VDD!:59 VSS!:29 2.84075e-18 $lvl1=1 $lvl2=1
CC49 VDD!:60 VSS!:28 2.43923e-18 $lvl1=1 $lvl2=1
CC50 VDD! VSS!:23 2.0101e-18 $lvl1=1 $lvl2=2
CC51 VDD!:55 VSS!:27 1.89074e-18 $lvl1=2 $lvl2=1
CC52 VDD!:55 VSS!:28 1.85998e-18 $lvl1=2 $lvl2=1
CC53 VDD! VSS!:20 1.64889e-18 $lvl1=1 $lvl2=2
CC54 VDD! VSS!:14 1.44982e-18 $lvl1=1 $lvl2=2
CC55 VDD!:60 VSS!:30 1.42534e-18 $lvl1=1 $lvl2=1
CC56 VDD!:59 VSS!:2 1.40528e-18 $lvl1=1 $lvl2=2
CC57 VDD!:44 VSS!:28 1.27935e-18 $lvl1=2 $lvl2=1
CC58 VDD!:9 VSS!:28 1.25144e-18 $lvl1=4 $lvl2=1
CC59 VDD!:42 VSS!:29 1.02607e-18 $lvl1=2 $lvl2=1
CC60 VDD!:1 VSS!:26 1.02605e-18 $lvl1=2 $lvl2=2
CC61 VDD!:60 VSS!:26 1.02133e-18 $lvl1=1 $lvl2=2
CC62 VDD!:42 VSS!:28 1.00861e-18 $lvl1=2 $lvl2=1
CC63 VDD!:60 VSS!:2 9.96071e-19 $lvl1=1 $lvl2=2
CC64 VDD!:60 VSS!:5 9.69111e-19 $lvl1=1 $lvl2=2
CC65 VDD!:58 VSS!:28 8.69529e-19 $lvl1=1 $lvl2=1
CC66 VDD!:1 VSS!:29 8.53334e-19 $lvl1=2 $lvl2=1
CC67 VDD!:51 VSS!:28 8.38847e-19 $lvl1=2 $lvl2=1
CC68 VDD!:55 VSS!:2 8.31004e-19 $lvl1=2 $lvl2=2
CC69 VDD!:58 VSS!:2 7.96377e-19 $lvl1=1 $lvl2=2
CC70 VDD!:29 VSS!:29 6.93847e-19 $lvl1=2 $lvl2=1
CC71 VDD!:55 VSS!:1 6.84109e-19 $lvl1=2 $lvl2=2
CC72 VDD!:60 VSS!:11 6.4937e-19 $lvl1=1 $lvl2=2
CC73 VDD!:44 VSS!:2 5.73042e-19 $lvl1=2 $lvl2=2
CC74 VDD!:60 VSS!:8 5.69217e-19 $lvl1=1 $lvl2=2
CC75 VDD!:58 VSS!:29 5.54355e-19 $lvl1=1 $lvl2=1
CC76 VDD!:16 VSS!:28 5.5324e-19 $lvl1=2 $lvl2=1
CC77 VDD!:39 VSS!:29 5.09159e-19 $lvl1=2 $lvl2=1
CC78 VDD!:39 VSS!:28 4.99176e-19 $lvl1=2 $lvl2=1
CC79 VDD!:1 VSS!:30 4.63656e-19 $lvl1=2 $lvl2=1
CC80 VDD!:48 VSS!:28 4.46389e-19 $lvl1=2 $lvl2=1
CC81 VDD!:39 VSS!:2 4.37025e-19 $lvl1=2 $lvl2=2
CC82 VDD!:60 VSS!:3 4.32913e-19 $lvl1=1 $lvl2=4
CC83 VDD!:35 VSS!:29 4.23847e-19 $lvl1=2 $lvl2=1
CC84 VDD! VSS!:16 4.14443e-19 $lvl1=1 $lvl2=2
CC85 VDD!:33 VSS!:29 3.8723e-19 $lvl1=2 $lvl2=1
CC86 VDD!:61 VSS!:29 3.86509e-19 $lvl1=1 $lvl2=1
CC87 VDD!:26 VSS!:29 3.85278e-19 $lvl1=2 $lvl2=1
CC88 VDD!:24 VSS!:29 3.74958e-19 $lvl1=2 $lvl2=1
CC89 VDD!:35 VSS!:28 3.73999e-19 $lvl1=2 $lvl2=1
CC90 VDD! VSS!:1 2.50046e-17 $lvl1=1 $lvl2=2
CC91 VDD! VSS!:26 2.21747e-17 $lvl1=1 $lvl2=2
CC92 VDD! VSS!:8 2.47278e-17 $lvl1=1 $lvl2=2
CC93 VDD! VSS!:9 2.81193e-17 $lvl1=1 $lvl2=2
CC94 VDD! VSS!:10 2.04328e-17 $lvl1=1 $lvl2=2
CC95 VDD! VSS!:11 1.19111e-17 $lvl1=1 $lvl2=2
CC96 VDD! VSS!:29 1.92272e-16 $lvl1=1 $lvl2=1
CC97 VDD! VSS!:28 1.30524e-16 $lvl1=1 $lvl2=1
CC98 VDD! VSS!:27 3.65789e-17 $lvl1=1 $lvl2=1
CC99 VDD! VSS!:30 3.40466e-17 $lvl1=1 $lvl2=1
CC100 VDD! VSS!:5 7.26291e-17 $lvl1=1 $lvl2=2
CC101 VDD! VSS!:2 1.75645e-16 $lvl1=1 $lvl2=2
ReC213 VDD!:58 VDD!:59 0.646875 $metal1  $L=2.07 $W=0.400000 $SI_W=0.4 $TYPE=10 $DIR=0 $LLX=8.970000 $LLY=3.940000 $URX=11.040000 $URY=4.340000 $lvl=1
ReC214 VDD!:59 VDD! 1.295313 $metal1  $L=4.145 $W=0.400000 $SI_W=0.4 $TYPE=10 $DIR=0 $LLX=4.825000 $LLY=3.940000 $URX=8.970000 $URY=4.340000 $lvl=1
ReC215 VDD! VDD!:60 0.357812 $metal1  $L=1.145 $W=0.400000 $SI_W=0.4 $TYPE=10 $DIR=0 $LLX=3.680000 $LLY=3.940000 $URX=4.825000 $URY=4.340000 $lvl=1
ReC216 VDD!:60 VDD!:61 1.150000 $metal1  $L=3.68 $W=0.400000 $SI_W=0.4 $TYPE=10 $DIR=0 $LLX=0.000000 $LLY=3.940000 $URX=3.680000 $URY=4.340000 $lvl=1
RfC217 VDD!:1 VDD!:3 39.905884 $li  $L=0.53 $W=0.170000 $SI_W=0.17 $TYPE=10 $DIR=1 $LLX=0.175000 $LLY=2.490000 $URX=0.345000 $URY=3.020000 $lvl=2
RfC218 VDD!:3 VDD!:4 81.330444 $li  $L=1.12025 $W=0.170000 $SI_W=0.17 $TYPE=10 $DIR=1 $LLX=0.175000 $LLY=3.020000 $URX=0.345000 $URY=4.140000 $lvl=2
RfC219 VDD!:4 VDD!:5 44.031998 $li  $L=0.86 $W=0.250000 $SI_W=0.25 $TYPE=10 $DIR=0 $LLX=0.260000 $LLY=4.015000 $URX=1.120000 $URY=4.265000 $lvl=2
RfC220 VDD!:5 VDD!:6 44.031998 $li  $L=0.86 $W=0.250000 $SI_W=0.25 $TYPE=10 $DIR=0 $LLX=1.120000 $LLY=4.015000 $URX=1.980000 $URY=4.265000 $lvl=2
RfC221 VDD!:6 VDD!:7 44.031998 $li  $L=0.86 $W=0.250000 $SI_W=0.25 $TYPE=10 $DIR=0 $LLX=1.980000 $LLY=4.015000 $URX=2.840000 $URY=4.265000 $lvl=2
RfC222 VDD!:7 VDD!:8 42.995201 $li  $L=0.83975 $W=0.250000 $SI_W=0.25 $TYPE=10 $DIR=0 $LLX=2.840000 $LLY=4.015000 $URX=3.680000 $URY=4.265000 $lvl=2
RfC223 VDD!:8 VDD!:11 45.068798 $li  $L=0.88025 $W=0.250000 $SI_W=0.25 $TYPE=10 $DIR=0 $LLX=3.680000 $LLY=4.015000 $URX=4.560000 $URY=4.265000 $lvl=2
RfC224 VDD!:11 VDD!:12 44.031998 $li  $L=0.86 $W=0.250000 $SI_W=0.25 $TYPE=10 $DIR=0 $LLX=4.560000 $LLY=4.015000 $URX=5.420000 $URY=4.265000 $lvl=2
RfC225 VDD!:12 VDD!:13 44.031998 $li  $L=0.86 $W=0.250000 $SI_W=0.25 $TYPE=10 $DIR=0 $LLX=5.420000 $LLY=4.015000 $URX=6.280000 $URY=4.265000 $lvl=2
RfC226 VDD!:13 VDD!:14 44.031998 $li  $L=0.86 $W=0.250000 $SI_W=0.25 $TYPE=10 $DIR=0 $LLX=6.280000 $LLY=4.015000 $URX=7.140000 $URY=4.265000 $lvl=2
RfC227 VDD!:14 VDD!:15 44.031998 $li  $L=0.86 $W=0.250000 $SI_W=0.25 $TYPE=10 $DIR=0 $LLX=7.140000 $LLY=4.015000 $URX=8.000000 $URY=4.265000 $lvl=2
RfC228 VDD!:15 VDD!:16 49.651199 $li  $L=0.96975 $W=0.250000 $SI_W=0.25 $TYPE=10 $DIR=0 $LLX=8.000000 $LLY=4.015000 $URX=8.970000 $URY=4.265000 $lvl=2
RfC229 VDD!:4 VDD!:18 13.324800 $li  $L=0.26025 $W=0.250000 $SI_W=0.25 $TYPE=10 $DIR=0 $LLX=0.000000 $LLY=4.015000 $URX=0.260000 $URY=4.265000 $lvl=2
RfC230 VDD!:5 VDD!:20 81.330444 $li  $L=1.12025 $W=0.170000 $SI_W=0.17 $TYPE=10 $DIR=1 $LLX=1.035000 $LLY=3.020000 $URX=1.205000 $URY=4.140000 $lvl=2
RfC231 VDD!:20 VDD!:21 39.905884 $li  $L=0.53 $W=0.170000 $SI_W=0.17 $TYPE=10 $DIR=1 $LLX=1.035000 $LLY=2.490000 $URX=1.205000 $URY=3.020000 $lvl=2
RfC232 VDD!:6 VDD!:23 81.330444 $li  $L=1.12025 $W=0.170000 $SI_W=0.17 $TYPE=10 $DIR=1 $LLX=1.895000 $LLY=3.020000 $URX=2.065000 $URY=4.140000 $lvl=2
RfC233 VDD!:23 VDD!:24 39.905884 $li  $L=0.53 $W=0.170000 $SI_W=0.17 $TYPE=10 $DIR=1 $LLX=1.895000 $LLY=2.490000 $URX=2.065000 $URY=3.020000 $lvl=2
RfC234 VDD!:7 VDD!:26 81.330444 $li  $L=1.12025 $W=0.170000 $SI_W=0.17 $TYPE=10 $DIR=1 $LLX=2.755000 $LLY=3.020000 $URX=2.925000 $URY=4.140000 $lvl=2
RfC235 VDD!:26 VDD!:27 39.905884 $li  $L=0.53 $W=0.170000 $SI_W=0.17 $TYPE=10 $DIR=1 $LLX=2.755000 $LLY=2.490000 $URX=2.925000 $URY=3.020000 $lvl=2
RfC236 VDD!:8 VDD!:29 81.317650 $li  $L=1.12 $W=0.170000 $SI_W=0.17 $TYPE=10 $DIR=1 $LLX=3.615000 $LLY=3.020000 $URX=3.785000 $URY=4.140000 $lvl=2
RfC237 VDD!:29 VDD!:30 39.905884 $li  $L=0.53 $W=0.170000 $SI_W=0.17 $TYPE=10 $DIR=1 $LLX=3.615000 $LLY=2.490000 $URX=3.785000 $URY=3.020000 $lvl=2
RfC238 VDD!:11 VDD!:32 81.330444 $li  $L=1.12025 $W=0.170000 $SI_W=0.17 $TYPE=10 $DIR=1 $LLX=4.475000 $LLY=3.020000 $URX=4.645000 $URY=4.140000 $lvl=2
RfC239 VDD!:32 VDD!:33 39.905884 $li  $L=0.53 $W=0.170000 $SI_W=0.17 $TYPE=10 $DIR=1 $LLX=4.475000 $LLY=2.490000 $URX=4.645000 $URY=3.020000 $lvl=2
RfC240 VDD!:12 VDD!:35 81.330444 $li  $L=1.12025 $W=0.170000 $SI_W=0.17 $TYPE=10 $DIR=1 $LLX=5.335000 $LLY=3.020000 $URX=5.505000 $URY=4.140000 $lvl=2
RfC241 VDD!:35 VDD!:36 39.905884 $li  $L=0.53 $W=0.170000 $SI_W=0.17 $TYPE=10 $DIR=1 $LLX=5.335000 $LLY=2.490000 $URX=5.505000 $URY=3.020000 $lvl=2
RfC242 VDD!:13 VDD!:38 81.330444 $li  $L=1.12025 $W=0.170000 $SI_W=0.17 $TYPE=10 $DIR=1 $LLX=6.195000 $LLY=3.020000 $URX=6.365000 $URY=4.140000 $lvl=2
RfC243 VDD!:38 VDD!:39 39.905884 $li  $L=0.53 $W=0.170000 $SI_W=0.17 $TYPE=10 $DIR=1 $LLX=6.195000 $LLY=2.490000 $URX=6.365000 $URY=3.020000 $lvl=2
RfC244 VDD!:14 VDD!:41 81.330444 $li  $L=1.12025 $W=0.170000 $SI_W=0.17 $TYPE=10 $DIR=1 $LLX=7.055000 $LLY=3.020000 $URX=7.225000 $URY=4.140000 $lvl=2
RfC245 VDD!:41 VDD!:42 39.905884 $li  $L=0.53 $W=0.170000 $SI_W=0.17 $TYPE=10 $DIR=1 $LLX=7.055000 $LLY=2.490000 $URX=7.225000 $URY=3.020000 $lvl=2
RfC246 VDD!:15 VDD!:44 81.330444 $li  $L=1.12025 $W=0.170000 $SI_W=0.17 $TYPE=10 $DIR=1 $LLX=7.915000 $LLY=3.020000 $URX=8.085000 $URY=4.140000 $lvl=2
RfC247 VDD!:44 VDD!:45 39.905884 $li  $L=0.53 $W=0.170000 $SI_W=0.17 $TYPE=10 $DIR=1 $LLX=7.915000 $LLY=2.490000 $URX=8.085000 $URY=3.020000 $lvl=2
RfC248 VDD!:16 VDD!:47 81.317650 $li  $L=1.12 $W=0.170000 $SI_W=0.17 $TYPE=10 $DIR=1 $LLX=8.775000 $LLY=3.020000 $URX=8.945000 $URY=4.140000 $lvl=2
RfC249 VDD!:47 VDD!:48 39.905884 $li  $L=0.53 $W=0.170000 $SI_W=0.17 $TYPE=10 $DIR=1 $LLX=8.775000 $LLY=2.490000 $URX=8.945000 $URY=3.020000 $lvl=2
RfC250 VDD!:16 VDD!:49 38.412804 $li  $L=0.75025 $W=0.250000 $SI_W=0.25 $TYPE=10 $DIR=0 $LLX=8.970000 $LLY=4.015000 $URX=9.720000 $URY=4.265000 $lvl=2
RfC251 VDD!:49 VDD!:51 81.330444 $li  $L=1.12025 $W=0.170000 $SI_W=0.17 $TYPE=10 $DIR=1 $LLX=9.635000 $LLY=3.020000 $URX=9.805000 $URY=4.140000 $lvl=2
RfC252 VDD!:51 VDD!:52 39.905884 $li  $L=0.53 $W=0.170000 $SI_W=0.17 $TYPE=10 $DIR=1 $LLX=9.635000 $LLY=2.490000 $URX=9.805000 $URY=3.020000 $lvl=2
RfC253 VDD!:49 VDD!:53 44.031998 $li  $L=0.86 $W=0.250000 $SI_W=0.25 $TYPE=10 $DIR=0 $LLX=9.720000 $LLY=4.015000 $URX=10.580000 $URY=4.265000 $lvl=2
RfC254 VDD!:53 VDD!:55 81.330444 $li  $L=1.12025 $W=0.170000 $SI_W=0.17 $TYPE=10 $DIR=1 $LLX=10.495000 $LLY=3.020000 $URX=10.665000 $URY=4.140000 $lvl=2
RfC255 VDD!:55 VDD!:56 39.905884 $li  $L=0.53 $W=0.170000 $SI_W=0.17 $TYPE=10 $DIR=1 $LLX=10.495000 $LLY=2.490000 $URX=10.665000 $URY=3.020000 $lvl=2
RfC256 VDD!:53 VDD!:57 23.513599 $li  $L=0.45925 $W=0.250000 $SI_W=0.25 $TYPE=10 $DIR=0 $LLX=10.580000 $LLY=4.015000 $URX=11.039000 $URY=4.265000 $lvl=2
Rh_1_C257 VDD!:9 VDD!:8 1.000000 $licon_diff  $A=0.4335 $VC=0 $SAVL=0 $SAVC=0 $SI_A=0.4335 $COVER_DIR=0 $LLX=0.000000 $LLY=0.000000 $URX=-0.433500 $URY=-15.000000 $lvl=5
Rh_1_C258 VDD!:9 VDD!:16 1.875000 $licon_diff  $A=0.2312 $VC=0 $SAVL=0 $SAVC=0 $SI_A=0.2312 $COVER_DIR=0 $LLX=0.000000 $LLY=0.000000 $URX=-0.231200 $URY=-8.000000 $lvl=5
Rh_2_C259 Mmp0:s VDD!:3 5.000000 $licon_diff  $A=0.0867 $VC=0 $SAVL=0 $SAVC=0 $SI_A=0.0867 $COVER_DIR=0 $LLX=0.000000 $LLY=0.000000 $URX=-0.086700 $URY=-3.000000 $lvl=5
Rh_2_C260 Mmp0@1:s VDD!:20 5.000000 $licon_diff  $A=0.0867 $VC=0 $SAVL=0 $SAVC=0 $SI_A=0.0867 $COVER_DIR=0 $LLX=0.000000 $LLY=0.000000 $URX=-0.086700 $URY=-3.000000 $lvl=5
Rh_2_C261 Mmp0@3:s VDD!:23 5.000000 $licon_diff  $A=0.0867 $VC=0 $SAVL=0 $SAVC=0 $SI_A=0.0867 $COVER_DIR=0 $LLX=0.000000 $LLY=0.000000 $URX=-0.086700 $URY=-3.000000 $lvl=5
Rh_2_C262 Mmp0@5:s VDD!:26 5.000000 $licon_diff  $A=0.0867 $VC=0 $SAVL=0 $SAVC=0 $SI_A=0.0867 $COVER_DIR=0 $LLX=0.000000 $LLY=0.000000 $URX=-0.086700 $URY=-3.000000 $lvl=5
Rh_2_C263 Mmp0@7:s VDD!:29 5.000000 $licon_diff  $A=0.0867 $VC=0 $SAVL=0 $SAVC=0 $SI_A=0.0867 $COVER_DIR=0 $LLX=0.000000 $LLY=0.000000 $URX=-0.086700 $URY=-3.000000 $lvl=5
Rh_2_C264 Mmp0@9:s VDD!:32 5.000000 $licon_diff  $A=0.0867 $VC=0 $SAVL=0 $SAVC=0 $SI_A=0.0867 $COVER_DIR=0 $LLX=0.000000 $LLY=0.000000 $URX=-0.086700 $URY=-3.000000 $lvl=5
Rh_2_C265 Mmp0@11:s VDD!:35 5.000000 $licon_diff  $A=0.0867 $VC=0 $SAVL=0 $SAVC=0 $SI_A=0.0867 $COVER_DIR=0 $LLX=0.000000 $LLY=0.000000 $URX=-0.086700 $URY=-3.000000 $lvl=5
Rh_2_C266 Mmp0@13:s VDD!:38 5.000000 $licon_diff  $A=0.0867 $VC=0 $SAVL=0 $SAVC=0 $SI_A=0.0867 $COVER_DIR=0 $LLX=0.000000 $LLY=0.000000 $URX=-0.086700 $URY=-3.000000 $lvl=5
Rh_2_C267 Mmp0@15:s VDD!:41 5.000000 $licon_diff  $A=0.0867 $VC=0 $SAVL=0 $SAVC=0 $SI_A=0.0867 $COVER_DIR=0 $LLX=0.000000 $LLY=0.000000 $URX=-0.086700 $URY=-3.000000 $lvl=5
Rh_2_C268 Mmp0@17:s VDD!:44 5.000000 $licon_diff  $A=0.0867 $VC=0 $SAVL=0 $SAVC=0 $SI_A=0.0867 $COVER_DIR=0 $LLX=0.000000 $LLY=0.000000 $URX=-0.086700 $URY=-3.000000 $lvl=5
Rh_2_C269 Mmp0@19:s VDD!:47 5.000000 $licon_diff  $A=0.0867 $VC=0 $SAVL=0 $SAVC=0 $SI_A=0.0867 $COVER_DIR=0 $LLX=0.000000 $LLY=0.000000 $URX=-0.086700 $URY=-3.000000 $lvl=5
Rh_2_C270 Mmp0@21:s VDD!:51 5.000000 $licon_diff  $A=0.0867 $VC=0 $SAVL=0 $SAVC=0 $SI_A=0.0867 $COVER_DIR=0 $LLX=0.000000 $LLY=0.000000 $URX=-0.086700 $URY=-3.000000 $lvl=5
Rh_2_C271 Mmp0@23:s VDD!:55 5.000000 $licon_diff  $A=0.0867 $VC=0 $SAVL=0 $SAVC=0 $SI_A=0.0867 $COVER_DIR=0 $LLX=0.000000 $LLY=0.000000 $URX=-0.086700 $URY=-3.000000 $lvl=5
RjC272 VDD!:16 VDD!:59 19.000000 $mcon  $A=0.2312 $VC=0 $SAVL=0 $SAVC=0 $SI_A=0.2312 $COVER_DIR=0 $LLX=0.000000 $LLY=0.000000 $URX=-0.231200 $URY=-8.000000 $lvl=6
RjC273 VDD!:8 VDD!:60 10.133333 $mcon  $A=0.4335 $VC=0 $SAVL=0 $SAVC=0 $SI_A=0.4335 $COVER_DIR=0 $LLX=0.000000 $LLY=0.000000 $URX=-0.433500 $URY=-15.000000 $lvl=6
RmwC274 Mmp0:b VDD! 0.001000 $FOX $W=1000000 $SI_W=1000000 $TYPE=1 $DIR=0
RmwC275 Mmp0@1:b VDD! 0.001000 $FOX $W=1000000 $SI_W=1000000 $TYPE=1 $DIR=0
RmwC276 Mmp0@2:s Mmp0@1:s 0.001000 $diff $W=1000000 $SI_W=1000000 $TYPE=1 $DIR=0
RmwC277 Mmp0@2:b VDD! 0.001000 $FOX $W=1000000 $SI_W=1000000 $TYPE=1 $DIR=0
RmwC278 Mmp0@3:b VDD! 0.001000 $FOX $W=1000000 $SI_W=1000000 $TYPE=1 $DIR=0
RmwC279 Mmp0@4:s Mmp0@3:s 0.001000 $diff $W=1000000 $SI_W=1000000 $TYPE=1 $DIR=0
RmwC280 Mmp0@4:b VDD! 0.001000 $FOX $W=1000000 $SI_W=1000000 $TYPE=1 $DIR=0
RmwC281 Mmp0@5:b VDD! 0.001000 $FOX $W=1000000 $SI_W=1000000 $TYPE=1 $DIR=0
RmwC282 Mmp0@6:s Mmp0@5:s 0.001000 $diff $W=1000000 $SI_W=1000000 $TYPE=1 $DIR=0
RmwC283 Mmp0@6:b VDD! 0.001000 $FOX $W=1000000 $SI_W=1000000 $TYPE=1 $DIR=0
RmwC284 Mmp0@7:b VDD! 0.001000 $FOX $W=1000000 $SI_W=1000000 $TYPE=1 $DIR=0
RmwC285 Mmp0@8:s Mmp0@7:s 0.001000 $diff $W=1000000 $SI_W=1000000 $TYPE=1 $DIR=0
RmwC286 Mmp0@8:b VDD! 0.001000 $FOX $W=1000000 $SI_W=1000000 $TYPE=1 $DIR=0
RmwC287 Mmp0@9:b VDD! 0.001000 $FOX $W=1000000 $SI_W=1000000 $TYPE=1 $DIR=0
RmwC288 Mmp0@10:s Mmp0@9:s 0.001000 $diff $W=1000000 $SI_W=1000000 $TYPE=1
+ $DIR=0
RmwC289 Mmp0@10:b VDD! 0.001000 $FOX $W=1000000 $SI_W=1000000 $TYPE=1 $DIR=0
RmwC290 Mmp0@11:b VDD! 0.001000 $FOX $W=1000000 $SI_W=1000000 $TYPE=1 $DIR=0
RmwC291 Mmp0@12:s Mmp0@11:s 0.001000 $diff $W=1000000 $SI_W=1000000 $TYPE=1
+ $DIR=0
RmwC292 Mmp0@12:b VDD! 0.001000 $FOX $W=1000000 $SI_W=1000000 $TYPE=1 $DIR=0
RmwC293 Mmp0@13:b VDD! 0.001000 $FOX $W=1000000 $SI_W=1000000 $TYPE=1 $DIR=0
RmwC294 Mmp0@14:s Mmp0@13:s 0.001000 $diff $W=1000000 $SI_W=1000000 $TYPE=1
+ $DIR=0
RmwC295 Mmp0@14:b VDD! 0.001000 $FOX $W=1000000 $SI_W=1000000 $TYPE=1 $DIR=0
RmwC296 Mmp0@15:b VDD! 0.001000 $FOX $W=1000000 $SI_W=1000000 $TYPE=1 $DIR=0
RmwC297 Mmp0@16:s Mmp0@15:s 0.001000 $diff $W=1000000 $SI_W=1000000 $TYPE=1
+ $DIR=0
RmwC298 Mmp0@16:b VDD! 0.001000 $FOX $W=1000000 $SI_W=1000000 $TYPE=1 $DIR=0
RmwC299 Mmp0@17:b VDD! 0.001000 $FOX $W=1000000 $SI_W=1000000 $TYPE=1 $DIR=0
RmwC300 Mmp0@18:s Mmp0@17:s 0.001000 $diff $W=1000000 $SI_W=1000000 $TYPE=1
+ $DIR=0
RmwC301 Mmp0@18:b VDD! 0.001000 $FOX $W=1000000 $SI_W=1000000 $TYPE=1 $DIR=0
RmwC302 Mmp0@19:b VDD! 0.001000 $FOX $W=1000000 $SI_W=1000000 $TYPE=1 $DIR=0
RmwC303 Mmp0@20:s Mmp0@19:s 0.001000 $diff $W=1000000 $SI_W=1000000 $TYPE=1
+ $DIR=0
RmwC304 Mmp0@20:b VDD! 0.001000 $FOX $W=1000000 $SI_W=1000000 $TYPE=1 $DIR=0
RmwC305 Mmp0@21:b VDD! 0.001000 $FOX $W=1000000 $SI_W=1000000 $TYPE=1 $DIR=0
RmwC306 Mmp0@22:s Mmp0@21:s 0.001000 $diff $W=1000000 $SI_W=1000000 $TYPE=1
+ $DIR=0
RmwC307 Mmp0@22:b VDD! 0.001000 $FOX $W=1000000 $SI_W=1000000 $TYPE=1 $DIR=0
RmwC308 Mmp0@23:b VDD! 0.001000 $FOX $W=1000000 $SI_W=1000000 $TYPE=1 $DIR=0
*
*|NET VSS! 4.16905e-15
*|P (VSS! X 0 4.8250 0.0050) // $llx=4.8250 $lly=0.0050 $urx=4.8250 $ury=0.0050 $lvl=1
*|I (Mmn0:s Mmn0 s X 0 0.3995 0.9700) // $llx=0.3995 $lly=0.9700 $urx=0.3995 $ury=0.9700 $lvl=4
*|I (Mmn0:b Mmn0 b X 0 0.4750 0.9700) // $llx=0.4750 $lly=0.9700 $urx=0.4750 $ury=0.9700 $lvl=8
*|I (Mmn0@1:s Mmn0@1 s X 0 0.9805 0.9700) // $llx=0.9805 $lly=0.9700 $urx=0.9805 $ury=0.9700 $lvl=4
*|I (Mmn0@1:b Mmn0@1 b X 0 0.9050 0.9700) // $llx=0.9050 $lly=0.9700 $urx=0.9050 $ury=0.9700 $lvl=8
*|I (Mmn0@2:s Mmn0@2 s X 0 1.2595 0.9700) // $llx=1.2595 $lly=0.9700 $urx=1.2595 $ury=0.9700 $lvl=4
*|I (Mmn0@2:b Mmn0@2 b X 0 1.3350 0.9700) // $llx=1.3350 $lly=0.9700 $urx=1.3350 $ury=0.9700 $lvl=8
*|I (Mmn0@3:s Mmn0@3 s X 0 1.8405 0.9700) // $llx=1.8405 $lly=0.9700 $urx=1.8405 $ury=0.9700 $lvl=4
*|I (Mmn0@3:b Mmn0@3 b X 0 1.7650 0.9700) // $llx=1.7650 $lly=0.9700 $urx=1.7650 $ury=0.9700 $lvl=8
*|I (Mmn0@4:s Mmn0@4 s X 0 2.1195 0.9700) // $llx=2.1195 $lly=0.9700 $urx=2.1195 $ury=0.9700 $lvl=4
*|I (Mmn0@4:b Mmn0@4 b X 0 2.1950 0.9700) // $llx=2.1950 $lly=0.9700 $urx=2.1950 $ury=0.9700 $lvl=8
*|I (Mmn0@5:s Mmn0@5 s X 0 2.7005 0.9700) // $llx=2.7005 $lly=0.9700 $urx=2.7005 $ury=0.9700 $lvl=4
*|I (Mmn0@5:b Mmn0@5 b X 0 2.6250 0.9700) // $llx=2.6250 $lly=0.9700 $urx=2.6250 $ury=0.9700 $lvl=8
*|I (Mmn0@6:s Mmn0@6 s X 0 2.9795 0.9700) // $llx=2.9795 $lly=0.9700 $urx=2.9795 $ury=0.9700 $lvl=4
*|I (Mmn0@6:b Mmn0@6 b X 0 3.0550 0.9700) // $llx=3.0550 $lly=0.9700 $urx=3.0550 $ury=0.9700 $lvl=8
*|I (Mmn0@7:s Mmn0@7 s X 0 3.5605 0.9700) // $llx=3.5605 $lly=0.9700 $urx=3.5605 $ury=0.9700 $lvl=4
*|I (Mmn0@7:b Mmn0@7 b X 0 3.4850 0.9700) // $llx=3.4850 $lly=0.9700 $urx=3.4850 $ury=0.9700 $lvl=8
*|S (VSS!:1 11.0400 0.0000) // $llx=11.0400 $lly=0.0000 $urx=11.0400 $ury=0.0000 $lvl=2
*|S (VSS!:2 8.9700 0.0000) // $llx=8.9700 $lly=0.0000 $urx=8.9700 $ury=0.0000 $lvl=2
*|S (VSS!:3 8.9700 0.0000) // $llx=8.9700 $lly=0.0000 $urx=8.9700 $ury=0.0000 $lvl=4
*|S (VSS!:5 3.6800 0.0000) // $llx=3.6800 $lly=0.0000 $urx=3.6800 $ury=0.0000 $lvl=2
*|S (VSS!:7 2.8400 0.0000) // $llx=2.8400 $lly=0.0000 $urx=2.8400 $ury=0.0000 $lvl=2
*|S (VSS!:8 1.9800 0.0000) // $llx=1.9800 $lly=0.0000 $urx=1.9800 $ury=0.0000 $lvl=2
*|S (VSS!:9 1.1200 0.0000) // $llx=1.1200 $lly=0.0000 $urx=1.1200 $ury=0.0000 $lvl=2
*|S (VSS!:10 0.2600 0.0000) // $llx=0.2600 $lly=0.0000 $urx=0.2600 $ury=0.0000 $lvl=2
*|S (VSS!:11 0.0000 0.0000) // $llx=0.0000 $lly=0.0000 $urx=0.0000 $ury=0.0000 $lvl=2
*|S (VSS!:13 3.7000 0.9700) // $llx=3.7000 $lly=0.9700 $urx=3.7000 $ury=0.9700 $lvl=2
*|S (VSS!:14 3.7000 1.3500) // $llx=3.7000 $lly=1.3500 $urx=3.7000 $ury=1.3500 $lvl=2