*
*|DSPF 1.5
*
*|DATE "Wed Jan  8 22:47:30 2025"
*|VENDOR "Cadence Design Systems"
*|PROGRAM "Cadence Quantus Extraction"
*|VERSION "22.1.0-p089 Linux 64 bit - (Thu Jan 19 11:47:08 PST 2023)"
*|DESIGN CLKINVX4_HS
*|DIVIDER /
*|DELIMITER :
*|DeviceFingerDelim "@"
*|BUSBIT []
*|GLOBAL_TEMPERATURE 25
*|OPERATING_TEMPERATURE 25

** *VIA_COVERAGE_CODES
** *index FF FS FP FU SF SS SP SU PF PS PP PU UF US UP UU X_by_Y
** * "FF" stands for Full landing and Full coverage
** *0 0 0 0 0 0 0 0 0 0 0 0 0 0 0 0 0
** *1 0 0 0 0 0 0 0 0 0 0 0 0 0 0 0 1 1x1
** *2 0 0 0 0 0 0 0 0 0 0 0 0 0 0 1 0 1x1
** *3 0 0 0 0 0 0 0 0 0 0 0 0 0 1 0 0 1x1
** *4 0 0 0 0 0 0 0 0 0 0 0 0 1 0 0 0 1x1
** *5 0 0 0 0 0 0 0 0 0 0 0 1 0 0 0 0 1x1
** *6 0 0 0 0 0 0 0 0 0 0 1 0 0 0 0 0 1x1
** *7 0 0 0 0 0 0 0 0 0 1 0 0 0 0 0 0 1x1
** *8 0 0 0 0 0 0 0 0 1 0 0 0 0 0 0 0 1x1
** *9 0 0 0 0 0 0 0 1 0 0 0 0 0 0 0 0 1x1
** *10 0 0 0 0 0 0 1 0 0 0 0 0 0 0 0 0 1x1
** *11 0 0 0 0 0 1 0 0 0 0 0 0 0 0 0 0 1x1
** *12 0 0 0 0 1 0 0 0 0 0 0 0 0 0 0 0 1x1
** *13 0 0 0 1 0 0 0 0 0 0 0 0 0 0 0 0 1x1
** *14 0 0 1 0 0 0 0 0 0 0 0 0 0 0 0 0 1x1
** *15 0 1 0 0 0 0 0 0 0 0 0 0 0 0 0 0 1x1
** *16 1 0 0 0 0 0 0 0 0 0 0 0 0 0 0 0 1x1

** *RESISTOR_TYPES
** *1 SHORTING_ELEMENT
** *2 PRES_NG
** *3 PRES_PG
** *4 PRES_NF
** *5 PRES_PF
** *6 TCN_NDIFF
** *7 TCN_PDIFF
** *8 TCN_NFIELD
** *9 TCN_PFIELD
** *10 QUALITY_EXTRACTED
** *11 GCNLAND
** *12 TCNLAND
** *13 DUMMY
** *14 RSD
** *15 BRIDGE

** *RESISTOR_CURRENT_DIRECTION
** *0 HORIZONTAL
** *1 VERTICAL
** *2 45 DEGREE

** QRC_TECH_DIR /vols/wfo_devel/projects/reference_SKY130/tech/sky130_release_0.0.4/quantus/extraction/typical 
** HIERARCHICAL_SPLIT_PINS_DELIMITER '%'
** caps2d version: 10
*
.SUBCKT  CLKINVX4_HS A Y
*
*Net Section
*
*|GROUND_NET VSS!
*
*LAYER_MAP
*0 none
*1 metal1
*2 li
*3 poly
*4 diff
*5 licon_diff
*6 mcon
*7 licon
*8 FOX

*|NET VSS! 2.35052e-15
*|P (VSS! X 0 4.8250 0.0050) // $llx=4.8250 $lly=0.0050 $urx=4.8250 $ury=0.0050 $lvl=1
*|I (Mmn0:s Mmn0 s X 0 0.3995 0.9700) // $llx=0.3995 $lly=0.9700 $urx=0.3995 $ury=0.9700 $lvl=4
*|I (Mmn0:b Mmn0 b X 0 0.4750 0.9700) // $llx=0.4750 $lly=0.9700 $urx=0.4750 $ury=0.9700 $lvl=8
*|I (Mmn0@1:s Mmn0@1 s X 0 0.9805 0.9700) // $llx=0.9805 $lly=0.9700 $urx=0.9805 $ury=0.9700 $lvl=4
*|I (Mmn0@1:b Mmn0@1 b X 0 0.9050 0.9700) // $llx=0.9050 $lly=0.9700 $urx=0.9050 $ury=0.9700 $lvl=8
*|I (Mmn0@2:s Mmn0@2 s X 0 1.2595 0.9700) // $llx=1.2595 $lly=0.9700 $urx=1.2595 $ury=0.9700 $lvl=4
*|I (Mmn0@2:b Mmn0@2 b X 0 1.3350 0.9700) // $llx=1.3350 $lly=0.9700 $urx=1.3350 $ury=0.9700 $lvl=8
*|I (Mmn0@3:s Mmn0@3 s X 0 1.8405 0.9700) // $llx=1.8405 $lly=0.9700 $urx=1.8405 $ury=0.9700 $lvl=4
*|I (Mmn0@3:b Mmn0@3 b X 0 1.7650 0.9700) // $llx=1.7650 $lly=0.9700 $urx=1.7650 $ury=0.9700 $lvl=8
*|S (VSS!:1 1.9800 1.3500) // $llx=1.9800 $lly=1.3500 $urx=1.9800 $ury=1.3500 $lvl=2
*|S (VSS!:3 1.9800 0.9700) // $llx=1.9800 $lly=0.9700 $urx=1.9800 $ury=0.9700 $lvl=2
*|S (VSS!:4 1.9800 0.0000) // $llx=1.9800 $lly=0.0000 $urx=1.9800 $ury=0.0000 $lvl=2
*|S (VSS!:5 1.1200 0.0000) // $llx=1.1200 $lly=0.0000 $urx=1.1200 $ury=0.0000 $lvl=2
*|S (VSS!:6 0.2600 0.0000) // $llx=0.2600 $lly=0.0000 $urx=0.2600 $ury=0.0000 $lvl=2
*|S (VSS!:7 0.0000 0.0000) // $llx=0.0000 $lly=0.0000 $urx=0.0000 $ury=0.0000 $lvl=2
*|S (VSS!:8 2.9900 0.0000) // $llx=2.9900 $lly=0.0000 $urx=2.9900 $ury=0.0000 $lvl=2
*|S (VSS!:9 2.9900 0.0000) // $llx=2.9900 $lly=0.0000 $urx=2.9900 $ury=0.0000 $lvl=4
*|S (VSS!:12 1.1200 0.9700) // $llx=1.1200 $lly=0.9700 $urx=1.1200 $ury=0.9700 $lvl=2
*|S (VSS!:13 1.1200 1.3500) // $llx=1.1200 $lly=1.3500 $urx=1.1200 $ury=1.3500 $lvl=2
*|S (VSS!:15 0.2600 0.9700) // $llx=0.2600 $lly=0.9700 $urx=0.2600 $ury=0.9700 $lvl=2
*|S (VSS!:16 0.2600 1.3500) // $llx=0.2600 $lly=1.3500 $urx=0.2600 $ury=1.3500 $lvl=2
*|S (VSS!:17 5.9800 0.0000) // $llx=5.9800 $lly=0.0000 $urx=5.9800 $ury=0.0000 $lvl=1
*|S (VSS!:18 2.9900 0.0000) // $llx=2.9900 $lly=0.0000 $urx=2.9900 $ury=0.0000 $lvl=1
*|S (VSS!:19 0.0000 0.0000) // $llx=0.0000 $lly=0.0000 $urx=0.0000 $ury=0.0000 $lvl=1
ReD162 VSS!:17 VSS! 0.360938 $metal1  $L=1.155 $W=0.400000 $SI_W=0.4 $TYPE=10 $DIR=0 $LLX=4.825000 $LLY=-0.199500 $URX=5.980000 $URY=0.200000 $lvl=1
ReD163 VSS! VSS!:18 0.573438 $metal1  $L=1.835 $W=0.400000 $SI_W=0.4 $TYPE=10 $DIR=0 $LLX=2.990000 $LLY=-0.199500 $URX=4.825000 $URY=0.200000 $lvl=1
ReD164 VSS!:18 VSS!:19 0.934375 $metal1  $L=2.99 $W=0.400000 $SI_W=0.4 $TYPE=10 $DIR=0 $LLX=0.000000 $LLY=-0.199500 $URX=2.990000 $URY=0.200000 $lvl=1
RfD165 VSS!:1 VSS!:3 28.611765 $li  $L=0.38 $W=0.170000 $SI_W=0.17 $TYPE=10 $DIR=1 $LLX=1.895000 $LLY=0.970000 $URX=2.065000 $URY=1.350000 $lvl=2
RfD166 VSS!:3 VSS!:4 70.010727 $li  $L=0.96975 $W=0.170000 $SI_W=0.17 $TYPE=10 $DIR=1 $LLX=1.895000 $LLY=0.000000 $URX=2.065000 $URY=0.970000 $lvl=2
RfD167 VSS!:4 VSS!:5 44.031998 $li  $L=0.86 $W=0.250000 $SI_W=0.25 $TYPE=10 $DIR=0 $LLX=1.120000 $LLY=-0.124500 $URX=1.980000 $URY=0.125000 $lvl=2
RfD168 VSS!:5 VSS!:6 44.031998 $li  $L=0.86 $W=0.250000 $SI_W=0.25 $TYPE=10 $DIR=0 $LLX=0.260000 $LLY=-0.124500 $URX=1.120000 $URY=0.125000 $lvl=2
RfD169 VSS!:6 VSS!:7 13.324800 $li  $L=0.26025 $W=0.250000 $SI_W=0.25 $TYPE=10 $DIR=0 $LLX=0.000000 $LLY=-0.124500 $URX=0.260000 $URY=0.125000 $lvl=2
RfD170 VSS!:4 VSS!:8 51.699200 $li  $L=1.00975 $W=0.250000 $SI_W=0.25 $TYPE=10 $DIR=0 $LLX=1.980000 $LLY=-0.124500 $URX=2.990000 $URY=0.125000 $lvl=2
RfD171 VSS!:5 VSS!:12 70.010727 $li  $L=0.96975 $W=0.170000 $SI_W=0.17 $TYPE=10 $DIR=1 $LLX=1.035000 $LLY=0.000000 $URX=1.205000 $URY=0.970000 $lvl=2
RfD172 VSS!:12 VSS!:13 28.611765 $li  $L=0.38 $W=0.170000 $SI_W=0.17 $TYPE=10 $DIR=1 $LLX=1.035000 $LLY=0.970000 $URX=1.205000 $URY=1.350000 $lvl=2
RfD173 VSS!:6 VSS!:15 70.010727 $li  $L=0.96975 $W=0.170000 $SI_W=0.17 $TYPE=10 $DIR=1 $LLX=0.175000 $LLY=0.000000 $URX=0.345000 $URY=0.970000 $lvl=2
RfD174 VSS!:15 VSS!:16 28.611765 $li  $L=0.38 $W=0.170000 $SI_W=0.17 $TYPE=10 $DIR=1 $LLX=0.175000 $LLY=0.970000 $URX=0.345000 $URY=1.350000 $lvl=2
RhD175 Mmn0@3:s VSS!:3 7.500000 $licon_diff  $A=0.0578 $VC=0 $SAVL=0 $SAVC=0 $SI_A=0.0578 $COVER_DIR=0 $LLX=0.000000 $LLY=0.000000 $URX=-0.057800 $URY=-2.000000 $lvl=5
RhD176 Mmn0@1:s VSS!:12 7.500000 $licon_diff  $A=0.0578 $VC=0 $SAVL=0 $SAVC=0 $SI_A=0.0578 $COVER_DIR=0 $LLX=0.000000 $LLY=0.000000 $URX=-0.057800 $URY=-2.000000 $lvl=5
RhD177 Mmn0:s VSS!:15 7.500000 $licon_diff  $A=0.0578 $VC=0 $SAVL=0 $SAVC=0 $SI_A=0.0578 $COVER_DIR=0 $LLX=0.000000 $LLY=0.000000 $URX=-0.057800 $URY=-2.000000 $lvl=5
Rh_3_D178 VSS!:9 VSS!:8 1.250000 $licon_diff  $A=0.3468 $VC=0 $SAVL=0 $SAVC=0 $SI_A=0.3468 $COVER_DIR=0 $LLX=0.000000 $LLY=0.000000 $URX=-0.346800 $URY=-12.000000 $lvl=5
RjD179 VSS!:8 VSS!:18 12.666667 $mcon  $A=0.3468 $VC=0 $SAVL=0 $SAVC=0 $SI_A=0.3468 $COVER_DIR=0 $LLX=0.000000 $LLY=0.000000 $URX=-0.346800 $URY=-12.000000 $lvl=6
RmwD180 Mmn0:b VSS! 0.001000 $FOX $W=1000000 $SI_W=1000000 $TYPE=1 $DIR=0
RmwD181 Mmn0@1:b VSS! 0.001000 $FOX $W=1000000 $SI_W=1000000 $TYPE=1 $DIR=0
RmwD182 Mmn0@2:s Mmn0@1:s 0.001000 $diff $W=1000000 $SI_W=1000000 $TYPE=1 $DIR=0
RmwD183 Mmn0@2:b VSS! 0.001000 $FOX $W=1000000 $SI_W=1000000 $TYPE=1 $DIR=0
RmwD184 Mmn0@3:b VSS! 0.001000 $FOX $W=1000000 $SI_W=1000000 $TYPE=1 $DIR=0
*
*|NET Y 5.91375e-15
*|P (Y X 0 4.1550 1.9750) // $llx=4.1550 $lly=1.9750 $urx=4.1550 $ury=1.9750 $lvl=1
*|I (Mmp0:d Mmp0 d X 0 0.5505 3.0200) // $llx=0.5505 $lly=3.0200 $urx=0.5505 $ury=3.0200 $lvl=4
*|I (Mmp0@1:d Mmp0@1 d X 0 0.8295 3.0200) // $llx=0.8295 $lly=3.0200 $urx=0.8295 $ury=3.0200 $lvl=4
*|I (Mmp0@2:d Mmp0@2 d X 0 1.4105 3.0200) // $llx=1.4105 $lly=3.0200 $urx=1.4105 $ury=3.0200 $lvl=4
*|I (Mmp0@3:d Mmp0@3 d X 0 1.6895 3.0200) // $llx=1.6895 $lly=3.0200 $urx=1.6895 $ury=3.0200 $lvl=4
*|I (Mmp0@4:d Mmp0@4 d X 0 2.2705 3.0200) // $llx=2.2705 $lly=3.0200 $urx=2.2705 $ury=3.0200 $lvl=4
*|I (Mmp0@5:d Mmp0@5 d X 0 2.5495 3.0200) // $llx=2.5495 $lly=3.0200 $urx=2.5495 $ury=3.0200 $lvl=4
*|I (Mmp0@6:d Mmp0@6 d X 0 3.1305 3.0200) // $llx=3.1305 $lly=3.0200 $urx=3.1305 $ury=3.0200 $lvl=4
*|I (Mmp0@7:d Mmp0@7 d X 0 3.4095 3.0200) // $llx=3.4095 $lly=3.0200 $urx=3.4095 $ury=3.0200 $lvl=4
*|I (Mmp0@8:d Mmp0@8 d X 0 3.9905 3.0200) // $llx=3.9905 $lly=3.0200 $urx=3.9905 $ury=3.0200 $lvl=4
*|I (Mmp0@9:d Mmp0@9 d X 0 4.2695 3.0200) // $llx=4.2695 $lly=3.0200 $urx=4.2695 $ury=3.0200 $lvl=4
*|I (Mmp0@10:d Mmp0@10 d X 0 4.8505 3.0200) // $llx=4.8505 $lly=3.0200 $urx=4.8505 $ury=3.0200 $lvl=4
*|I (Mmp0@11:d Mmp0@11 d X 0 5.1295 3.0200) // $llx=5.1295 $lly=3.0200 $urx=5.1295 $ury=3.0200 $lvl=4
*|I (Mmn0:d Mmn0 d X 0 0.5505 0.9700) // $llx=0.5505 $lly=0.9700 $urx=0.5505 $ury=0.9700 $lvl=4
*|I (Mmn0@1:d Mmn0@1 d X 0 0.8295 0.9700) // $llx=0.8295 $lly=0.9700 $urx=0.8295 $ury=0.9700 $lvl=4
*|I (Mmn0@2:d Mmn0@2 d X 0 1.4105 0.9700) // $llx=1.4105 $lly=0.9700 $urx=1.4105 $ury=0.9700 $lvl=4
*|I (Mmn0@3:d Mmn0@3 d X 0 1.6895 0.9700) // $llx=1.6895 $lly=0.9700 $urx=1.6895 $ury=0.9700 $lvl=4
*|S (Y:1 0.6900 3.5500) // $llx=0.6900 $lly=3.5500 $urx=0.6900 $ury=3.5500 $lvl=2
*|S (Y:2 0.6900 3.3550) // $llx=0.6900 $lly=3.3550 $urx=0.6900 $ury=3.3550 $lvl=2
*|S (Y:4 0.6900 3.0200) // $llx=0.6900 $lly=3.0200 $urx=0.6900 $ury=3.0200 $lvl=2
*|S (Y:5 0.6900 2.4900) // $llx=0.6900 $lly=2.4900 $urx=0.6900 $ury=2.4900 $lvl=2
*|S (Y:6 0.6900 1.3500) // $llx=0.6900 $lly=1.3500 $urx=0.6900 $ury=1.3500 $lvl=2
*|S (Y:8 0.6900 0.9700) // $llx=0.6900 $lly=0.9700 $urx=0.6900 $ury=0.9700 $lvl=2
*|S (Y:9 0.6900 0.7550) // $llx=0.6900 $lly=0.7550 $urx=0.6900 $ury=0.7550 $lvl=2
*|S (Y:10 1.5500 3.5500) // $llx=1.5500 $lly=3.5500 $urx=1.5500 $ury=3.5500 $lvl=2
*|S (Y:11 1.5500 3.3550) // $llx=1.5500 $lly=3.3550 $urx=1.5500 $ury=3.3550 $lvl=2
*|S (Y:13 1.5500 3.0200) // $llx=1.5500 $lly=3.0200 $urx=1.5500 $ury=3.0200 $lvl=2
*|S (Y:14 1.5500 2.4900) // $llx=1.5500 $lly=2.4900 $urx=1.5500 $ury=2.4900 $lvl=2
*|S (Y:15 1.5500 1.3500) // $llx=1.5500 $lly=1.3500 $urx=1.5500 $ury=1.3500 $lvl=2
*|S (Y:17 1.5500 0.9700) // $llx=1.5500 $lly=0.9700 $urx=1.5500 $ury=0.9700 $lvl=2
*|S (Y:18 1.5500 0.7550) // $llx=1.5500 $lly=0.7550 $urx=1.5500 $ury=0.7550 $lvl=2
*|S (Y:19 2.4100 3.5500) // $llx=2.4100 $lly=3.5500 $urx=2.4100 $ury=3.5500 $lvl=2
*|S (Y:20 2.4100 3.3550) // $llx=2.4100 $lly=3.3550 $urx=2.4100 $ury=3.3550 $lvl=2
*|S (Y:22 2.4100 3.0200) // $llx=2.4100 $lly=3.0200 $urx=2.4100 $ury=3.0200 $lvl=2
*|S (Y:23 2.4100 2.4900) // $llx=2.4100 $lly=2.4900 $urx=2.4100 $ury=2.4900 $lvl=2
*|S (Y:24 3.2700 3.5500) // $llx=3.2700 $lly=3.5500 $urx=3.2700 $ury=3.5500 $lvl=2
*|S (Y:25 3.2700 3.3550) // $llx=3.2700 $lly=3.3550 $urx=3.2700 $ury=3.3550 $lvl=2
*|S (Y:27 3.2700 3.0200) // $llx=3.2700 $lly=3.0200 $urx=3.2700 $ury=3.0200 $lvl=2
*|S (Y:28 3.2700 2.4900) // $llx=3.2700 $lly=2.4900 $urx=3.2700 $ury=2.4900 $lvl=2
*|S (Y:29 4.1300 3.5500) // $llx=4.1300 $lly=3.5500 $urx=4.1300 $ury=3.5500 $lvl=2
*|S (Y:31 4.1300 3.0200) // $llx=4.1300 $lly=3.0200 $urx=4.1300 $ury=3.0200 $lvl=2
*|S (Y:32 4.1300 2.9950) // $llx=4.1300 $lly=2.9950 $urx=4.1300 $ury=2.9950 $lvl=2
*|S (Y:33 4.9900 3.5500) // $llx=4.9900 $lly=3.5500 $urx=4.9900 $ury=3.5500 $lvl=2
*|S (Y:34 4.9900 3.3550) // $llx=4.9900 $lly=3.3550 $urx=4.9900 $ury=3.3550 $lvl=2
*|S (Y:36 4.9900 3.0200) // $llx=4.9900 $lly=3.0200 $urx=4.9900 $ury=3.0200 $lvl=2
*|S (Y:37 4.9900 2.4900) // $llx=4.9900 $lly=2.4900 $urx=4.9900 $ury=2.4900 $lvl=2
*|S (Y:38 5.5450 3.3550) // $llx=5.5450 $lly=3.3550 $urx=5.5450 $ury=3.3550 $lvl=1
*|S (Y:39 4.9900 3.3550) // $llx=4.9900 $lly=3.3550 $urx=4.9900 $ury=3.3550 $lvl=1
*|S (Y:40 4.1400 3.3550) // $llx=4.1400 $lly=3.3550 $urx=4.1400 $ury=3.3550 $lvl=1
*|S (Y:41 4.1300 2.9950) // $llx=4.1300 $lly=2.9950 $urx=4.1300 $ury=2.9950 $lvl=1
*|S (Y:42 4.1400 0.7550) // $llx=4.1400 $lly=0.7550 $urx=4.1400 $ury=0.7550 $lvl=1
*|S (Y:43 1.5500 0.7550) // $llx=1.5500 $lly=0.7550 $urx=1.5500 $ury=0.7550 $lvl=1
*|S (Y:44 0.6900 0.7550) // $llx=0.6900 $lly=0.7550 $urx=0.6900 $ury=0.7550 $lvl=1
*|S (Y:45 3.2700 3.3550) // $llx=3.2700 $lly=3.3550 $urx=3.2700 $ury=3.3550 $lvl=1
*|S (Y:46 2.4100 3.3550) // $llx=2.4100 $lly=3.3550 $urx=2.4100 $ury=3.3550 $lvl=1
*|S (Y:47 1.5500 3.3550) // $llx=1.5500 $lly=3.3550 $urx=1.5500 $ury=3.3550 $lvl=1
*|S (Y:48 0.6900 3.3550) // $llx=0.6900 $lly=3.3550 $urx=0.6900 $ury=3.3550 $lvl=1
*|S (Y:49 4.2745 0.7550) // $llx=4.2745 $lly=0.7550 $urx=4.2745 $ury=0.7550 $lvl=1
CB1 Mmn0@2:d VSS! 8.1568e-20 $lvl=4
CB2 Mmn0:d VSS! 1.88155e-19 $lvl=4
CB3 Mmp0@10:d VSS! 5.80221e-19 $lvl=4
CB4 Mmp0@8:d VSS! 6.25244e-19 $lvl=4
CB5 Mmp0@6:d VSS! 1.06864e-18 $lvl=4
CB6 Mmp0@4:d VSS! 1.04828e-19 $lvl=4
CB7 Mmp0@2:d VSS! 8.36236e-19 $lvl=4
CB8 Mmp0:d VSS! 6.81373e-19 $lvl=4
CB9 Y:48 VSS! 3.14465e-18 $lvl=1
CB10 Y:47 VSS! 3.02119e-18 $lvl=1
CB11 Y:46 VSS! 3.8341e-18 $lvl=1
CB12 Y:45 VSS! 3.96533e-18 $lvl=1
CB13 Y:44 VSS! 5.12579e-18 $lvl=1
CB14 Y:43 VSS! 8.22236e-18 $lvl=1
CB15 Y:39 VSS! 2.3025e-18 $lvl=1
CB16 Y:38 VSS! 3.16002e-18 $lvl=1
CB17 Y:40 VSS! 1.22372e-17 $lvl=1
CB18 Y:42 VSS! 2.20551e-17 $lvl=1
CB19 Y:36 VSS! 2.8427e-18 $lvl=2
CB20 Y:37 VSS! 2.08545e-18 $lvl=2
CB21 Y:29 VSS! 2.15146e-18 $lvl=2
CB22 Y:24 VSS! 2.41853e-18 $lvl=2
CB23 Y:28 VSS! 2.28766e-18 $lvl=2
CB24 Y:19 VSS! 2.24329e-18 $lvl=2
CB25 Y:23 VSS! 2.11772e-18 $lvl=2
CB26 Y:15 VSS! 1.02669e-17 $lvl=2
CB27 Y:10 VSS! 2.97172e-18 $lvl=2
CB28 Y:14 VSS! 2.21897e-18 $lvl=2
CB29 Y:6 VSS! 3.96529e-18 $lvl=2
CB30 Y:1 VSS! 3.30379e-18 $lvl=2
CB31 Y:5 VSS! 2.02968e-18 $lvl=2
CB32 Y:9 VSS! 1.17658e-18 $lvl=2
CB33 Y:2 VSS! 9.29666e-19 $lvl=2
CB34 Y:18 VSS! 9.87787e-19 $lvl=2
CB35 Y:11 VSS! 8.66534e-19 $lvl=2
CB36 Y:20 VSS! 2.80983e-19 $lvl=2
CB37 Y:25 VSS! 3.60111e-19 $lvl=2
CB38 Y:32 VSS! 1.90792e-18 $lvl=2
CB39 Y:34 VSS! 8.36368e-19 $lvl=2
CB40 Y:40 VSS!:18 9.66754e-18 $lvl1=1 $lvl2=1
CB41 Y:42 VSS!:8 9.00909e-18 $lvl1=1 $lvl2=2
CB42 Y:18 VSS!:1 8.87016e-18 $lvl1=2 $lvl2=2
CB43 Y:18 VSS!:13 7.84844e-18 $lvl1=2 $lvl2=2
CB44 Y:9 VSS!:16 7.75496e-18 $lvl1=2 $lvl2=2
CB45 Y:9 VSS!:13 7.49643e-18 $lvl1=2 $lvl2=2
CB46 Y:6 VSS!:5 6.74222e-18 $lvl1=2 $lvl2=2
CB47 Y:44 VSS!:19 6.26156e-18 $lvl1=1 $lvl2=1
CB48 Y:15 VSS!:5 6.25177e-18 $lvl1=2 $lvl2=2
CB49 Y:43 VSS!:8 6.09188e-18 $lvl1=1 $lvl2=2
CB50 Y:6 VSS!:6 6.04765e-18 $lvl1=2 $lvl2=2
CB51 Y:15 VSS!:4 5.38628e-18 $lvl1=2 $lvl2=2
CB52 Y:44 VSS!:6 4.23089e-18 $lvl1=1 $lvl2=2
CB53 Y:44 VSS!:5 2.4567e-18 $lvl1=1 $lvl2=2
CB54 Y:42 VSS!:17 2.42257e-18 $lvl1=1 $lvl2=1
CB55 Y:43 VSS!:19 2.3889e-18 $lvl1=1 $lvl2=1
CB56 Y:43 VSS!:5 2.23446e-18 $lvl1=1 $lvl2=2
CB57 Y:44 VSS!:8 2.1617e-18 $lvl1=1 $lvl2=2
CB58 Y:42 VSS!:1 1.96292e-18 $lvl1=1 $lvl2=2
CB59 Y:6 VSS!:18 1.8419e-18 $lvl1=2 $lvl2=1
CB60 Y:42 VSS!:9 1.80544e-18 $lvl1=1 $lvl2=4
CB61 Y:18 VSS!:18 1.59698e-18 $lvl1=2 $lvl2=1
CB62 Mmn0@2:d VSS!:5 1.54013e-18 $lvl1=4 $lvl2=2
CB63 Y:38 VSS!:18 1.49329e-18 $lvl1=1 $lvl2=1
CB64 Y:6 VSS!:8 1.48484e-18 $lvl1=2 $lvl2=2
CB65 Y:40 VSS!:17 1.46889e-18 $lvl1=1 $lvl2=1
CB66 Y:48 VSS!:18 1.44025e-18 $lvl1=1 $lvl2=1
CB67 Y:46 VSS!:18 1.43231e-18 $lvl1=1 $lvl2=1
CB68 Y:15 VSS!:18 1.38719e-18 $lvl1=2 $lvl2=1
CB69 Mmn0:d VSS!:16 1.37558e-18 $lvl1=4 $lvl2=2
CB70 Y:40 VSS!:4 1.28104e-18 $lvl1=1 $lvl2=2
CB71 Y:39 VSS!:18 1.19986e-18 $lvl1=1 $lvl2=1
CB72 Mmn0@2:d VSS!:13 1.14198e-18 $lvl1=4 $lvl2=2
CB73 Mmn0:d VSS!:5 1.08687e-18 $lvl1=4 $lvl2=2
CB74 Y:15 VSS!:9 1.05291e-18 $lvl1=2 $lvl2=4
CB75 Mmn0@2:d VSS!:1 1.03179e-18 $lvl1=4 $lvl2=2
CB76 Y:18 VSS!:4 1.01109e-18 $lvl1=2 $lvl2=2
CB77 Y:45 VSS!:18 1.00131e-18 $lvl1=1 $lvl2=1
CB78 Y:6 VSS!:9 9.56224e-19 $lvl1=2 $lvl2=4
CB79 Y:43 VSS!:9 8.63274e-19 $lvl1=1 $lvl2=4
CB80 Y:47 VSS!:18 8.50821e-19 $lvl1=1 $lvl2=1
CB81 Y:15 VSS!:8 8.46031e-19 $lvl1=2 $lvl2=2
CB82 Y:18 VSS!:5 8.0682e-19 $lvl1=2 $lvl2=2
CB83 Y:38 VSS!:17 7.407e-19 $lvl1=1 $lvl2=1
CB84 Y:9 VSS!:18 7.02555e-19 $lvl1=2 $lvl2=1
CB85 Y:9 VSS!:6 6.76962e-19 $lvl1=2 $lvl2=2
CB86 Y:40 VSS!:1 6.70861e-19 $lvl1=1 $lvl2=2
CB87 Y:42 VSS!:13 6.29518e-19 $lvl1=1 $lvl2=2
CB88 Y:9 VSS!:5 6.15236e-19 $lvl1=2 $lvl2=2
CB89 Y:43 VSS!:6 5.42332e-19 $lvl1=1 $lvl2=2
CB90 Mmp0:d VSS!:18 4.54463e-19 $lvl1=4 $lvl2=1
CB91 Y:15 Mmn0@1:s 4.54111e-19 $lvl1=2 $lvl2=4
CB92 Y:44 VSS!:7 4.51767e-19 $lvl1=1 $lvl2=2
CB93 Y:47 VSS!:19 4.38762e-19 $lvl1=1 $lvl2=1
CB94 Y:18 VSS!:8 4.33922e-19 $lvl1=2 $lvl2=2
CB95 Y:9 VSS!:19 4.12564e-19 $lvl1=2 $lvl2=1
CB96 Y:38 VSS!:4 4.08828e-19 $lvl1=1 $lvl2=2
CB97 Y:24 VSS!:18 3.9061e-19 $lvl1=2 $lvl2=1
CB98 Y:48 VSS!:19 3.73707e-19 $lvl1=1 $lvl2=1
CB99 Y:15 Mmn0@3:s 3.64726e-19 $lvl1=2 $lvl2=4
CB100 Y:43 VSS!:16 3.48847e-19 $lvl1=1 $lvl2=2
CB101 Y:44 VSS!:9 3.20357e-19 $lvl1=1 $lvl2=4
CB102 Y:44 VSS!:4 3.12911e-19 $lvl1=1 $lvl2=2
CB103 Y:19 VSS!:1 3.07303e-19 $lvl1=2 $lvl2=2
CB104 Y:10 VSS!:18 3.03771e-19 $lvl1=2 $lvl2=1
CB105 Y:19 VSS!:18 2.95889e-19 $lvl1=2 $lvl2=1
CB106 Y:39 VSS!:17 2.80755e-19 $lvl1=1 $lvl2=1
CB107 Y:42 Mmn0@3:s 2.63932e-19 $lvl1=1 $lvl2=4
CB108 Y:40 VSS!:19 2.58672e-19 $lvl1=1 $lvl2=1
CB109 Mmn0:d VSS!:13 2.55542e-19 $lvl1=4 $lvl2=2
CB110 Y:37 VSS!:18 2.50566e-19 $lvl1=2 $lvl2=1
CB111 Mmn0@2:d VSS!:4 2.50383e-19 $lvl1=4 $lvl2=2
CB112 Y:42 VSS!:18 9.87537e-17 $lvl1=1 $lvl2=1
CB113 Y:44 VSS!:16 1.04139e-17 $lvl1=1 $lvl2=2
CB114 Y:43 VSS!:18 9.36337e-17 $lvl1=1 $lvl2=1
CB115 Y:15 VSS!:13 4.86202e-17 $lvl1=2 $lvl2=2
CB116 Y:43 VSS!:1 3.38641e-17 $lvl1=1 $lvl2=2
CB117 Y:43 VSS!:13 1.16245e-17 $lvl1=1 $lvl2=2
CB118 Y:15 VSS!:1 4.86216e-17 $lvl1=2 $lvl2=2
CB119 Y:6 VSS!:16 5.30271e-17 $lvl1=2 $lvl2=2
CB120 Y:44 VSS!:18 3.77648e-17 $lvl1=1 $lvl2=1
CB121 Y:43 VSS!:4 1.32341e-17 $lvl1=1 $lvl2=2
CB122 Y:42 VSS!:4 2.98249e-17 $lvl1=1 $lvl2=2
CB123 Y:44 VSS!:13 1.28257e-17 $lvl1=1 $lvl2=2
CB124 Y:6 VSS!:13 4.79083e-17 $lvl1=2 $lvl2=2
CB125 Y:48 VDD!:1 9.82935e-18 $lvl1=1 $lvl2=2
CB126 Y:29 VDD!:7 9.113e-18 $lvl1=2 $lvl2=2
CB127 Y:28 VDD!:19 8.60297e-18 $lvl1=2 $lvl2=2
CB128 Y:10 VDD! 8.45718e-18 $lvl1=2 $lvl2=1
CB129 Y:19 VDD!:7 8.42202e-18 $lvl1=2 $lvl2=2
CB130 Y:10 VDD!:5 8.33215e-18 $lvl1=2 $lvl2=2
CB131 Y:37 VDD!:31 8.30486e-18 $lvl1=2 $lvl2=2
CB132 Y:14 VDD!:13 8.15291e-18 $lvl1=2 $lvl2=2
CB133 Y:5 VDD!:13 8.04464e-18 $lvl1=2 $lvl2=2
CB134 Y:23 VDD!:19 7.87854e-18 $lvl1=2 $lvl2=2
CB135 Y:39 VDD! 7.7046e-18 $lvl1=1 $lvl2=1
CB136 Y:1 VDD!:4 7.55345e-18 $lvl1=2 $lvl2=2
CB137 Y:14 VDD!:15 7.50154e-18 $lvl1=2 $lvl2=2
CB138 Y:28 VDD!:23 7.47091e-18 $lvl1=2 $lvl2=2
CB139 Y:23 VDD!:15 7.46413e-18 $lvl1=2 $lvl2=2
CB140 Y:19 VDD!:6 7.46053e-18 $lvl1=2 $lvl2=2
CB141 Y:1 VDD!:5 7.31839e-18 $lvl1=2 $lvl2=2
CB142 Y:5 VDD!:1 7.26011e-18 $lvl1=2 $lvl2=2
CB143 Y:48 VDD!:35 7.10449e-18 $lvl1=1 $lvl2=1
CB144 Y:19 VDD! 6.98005e-18 $lvl1=2 $lvl2=1
CB145 Y:36 VDD!:24 6.92833e-18 $lvl1=2 $lvl2=2
CB146 Y:37 VDD!:27 6.91976e-18 $lvl1=2 $lvl2=2
CB147 Y:10 VDD!:6 6.52426e-18 $lvl1=2 $lvl2=2
CB148 Y:32 VDD!:23 6.14918e-18 $lvl1=2 $lvl2=2
CB149 Y:32 VDD!:27 5.86351e-18 $lvl1=2 $lvl2=2
CB150 Y:29 VDD!:24 5.68731e-18 $lvl1=2 $lvl2=2
CB151 Y:36 VDD!:28 5.43902e-18 $lvl1=2 $lvl2=2
CB152 Y:45 VDD!:7 5.25055e-18 $lvl1=1 $lvl2=2
CB153 Y:1 VDD! 4.92473e-18 $lvl1=2 $lvl2=1
CB154 Y:40 VDD!:31 4.31617e-18 $lvl1=1 $lvl2=2
CB155 Y:38 VDD!:28 4.23518e-18 $lvl1=1 $lvl2=2
CB156 Y:40 VDD!:7 4.14492e-18 $lvl1=1 $lvl2=2
CB157 Y:46 VDD!:7 3.94775e-18 $lvl1=1 $lvl2=2
CB158 Y:39 VDD!:31 3.438e-18 $lvl1=1 $lvl2=2
CB159 Y:46 VDD!:6 3.26729e-18 $lvl1=1 $lvl2=2
CB160 Y:48 VDD!:5 3.24509e-18 $lvl1=1 $lvl2=2
CB161 Y:39 VDD!:24 3.09893e-18 $lvl1=1 $lvl2=2
CB162 Y:24 VDD! 3.0818e-18 $lvl1=2 $lvl2=1
CB163 Y:40 VDD!:24 2.97471e-18 $lvl1=1 $lvl2=2
CB164 Y:29 VDD!:34 2.92085e-18 $lvl1=2 $lvl2=1
CB165 Y:19 VDD!:34 2.90345e-18 $lvl1=2 $lvl2=1
CB166 Y:36 VDD!:34 2.87898e-18 $lvl1=2 $lvl2=1
CB167 Y:47 VDD!:6 2.86047e-18 $lvl1=1 $lvl2=2
CB168 Y:10 VDD!:34 2.7343e-18 $lvl1=2 $lvl2=1
CB169 Y:40 VDD!:19 2.51943e-18 $lvl1=1 $lvl2=2
CB170 Y:42 VDD!:34 2.44546e-18 $lvl1=1 $lvl2=1
CB171 Y:24 VDD!:34 2.41879e-18 $lvl1=2 $lvl2=1
CB172 Y:47 VDD!:5 2.28797e-18 $lvl1=1 $lvl2=2
CB173 Y:40 VDD!:33 2.18192e-18 $lvl1=1 $lvl2=1
CB174 Y:37 VDD! 1.93794e-18 $lvl1=2 $lvl2=1
CB175 Mmp0@6:d VDD!:7 1.76234e-18 $lvl1=4 $lvl2=2
CB176 Y:38 VDD!:32 1.74369e-18 $lvl1=1 $lvl2=2
CB177 Y:36 Mmp0@9:s 1.7338e-18 $lvl1=2 $lvl2=4
CB178 Y:2 VDD!:1 1.72477e-18 $lvl1=2 $lvl2=2
CB179 Y:34 VDD!:31 1.72266e-18 $lvl1=2 $lvl2=2
CB180 Y:34 VDD!:27 1.68325e-18 $lvl1=2 $lvl2=2
CB181 Y:10 Mmp0@1:s 1.64937e-18 $lvl1=2 $lvl2=4
CB182 Y:48 VDD!:4 1.58157e-18 $lvl1=1 $lvl2=2
CB183 Y:28 VDD! 1.57724e-18 $lvl1=2 $lvl2=1
CB184 Y:11 VDD!:15 1.5091e-18 $lvl1=2 $lvl2=2
CB185 Y:2 VDD!:13 1.48913e-18 $lvl1=2 $lvl2=2
CB186 Y:25 VDD!:19 1.48509e-18 $lvl1=2 $lvl2=2
CB187 Y:1 VDD!:34 1.43721e-18 $lvl1=2 $lvl2=1
CB188 Y:39 VDD!:33 1.42056e-18 $lvl1=1 $lvl2=1
CB189 Y:38 VDD!:27 1.41801e-18 $lvl1=1 $lvl2=2
CB190 Y:29 VDD!:8 1.40864e-18 $lvl1=2 $lvl2=4
CB191 Y:43 VDD!:34 1.39092e-18 $lvl1=1 $lvl2=1
CB192 Y:47 VDD!:7 1.39087e-18 $lvl1=1 $lvl2=2
CB193 Mmp0@2:d VDD!:13 1.3595e-18 $lvl1=4 $lvl2=2
CB194 Y:20 VDD!:19 1.31921e-18 $lvl1=2 $lvl2=2
CB195 Y:25 VDD!:23 1.28925e-18 $lvl1=2 $lvl2=2
CB196 Y:11 VDD!:13 1.27737e-18 $lvl1=2 $lvl2=2
CB197 Y:29 Mmp0@7:s 1.27155e-18 $lvl1=2 $lvl2=4
CB198 Y:23 VDD! 1.22492e-18 $lvl1=2 $lvl2=1
CB199 Y:10 Mmp0@3:s 1.18329e-18 $lvl1=2 $lvl2=4
CB200 Mmp0:d VDD!:13 1.17072e-18 $lvl1=4 $lvl2=2
CB201 Mmp0@2:d VDD!:6 1.14846e-18 $lvl1=4 $lvl2=2
CB202 Y:43 VDD!:15 1.14469e-18 $lvl1=1 $lvl2=2
CB203 Y:14 VDD! 1.13956e-18 $lvl1=2 $lvl2=1
CB204 Y:39 VDD!:28 1.1271e-18 $lvl1=1 $lvl2=2
CB205 Y:20 VDD!:15 1.12674e-18 $lvl1=2 $lvl2=2
CB206 Y:6 VDD! 1.08835e-18 $lvl1=2 $lvl2=1
CB207 Mmp0@10:d VDD!:31 1.0652e-18 $lvl1=4 $lvl2=2
CB208 Y:29 Mmp0@9:s 1.02261e-18 $lvl1=2 $lvl2=4
CB209 Y:19 VDD!:8 1.00459e-18 $lvl1=2 $lvl2=4
CB210 Y:47 VDD!:35 9.88889e-19 $lvl1=1 $lvl2=1
CB211 Y:1 VDD!:8 9.57314e-19 $lvl1=2 $lvl2=4
CB212 Mmp0:d VDD!:4 9.24853e-19 $lvl1=4 $lvl2=2
CB213 Mmp0@2:d VDD!:15 9.20207e-19 $lvl1=4 $lvl2=2
CB214 Y:43 VDD!:19 8.90425e-19 $lvl1=1 $lvl2=2
CB215 Y:42 VDD!:19 8.8357e-19 $lvl1=1 $lvl2=2
CB216 Y:42 VDD!:31 8.56521e-19 $lvl1=1 $lvl2=2
CB217 Y:47 VDD!:19 8.28543e-19 $lvl1=1 $lvl2=2
CB218 Y:44 VDD!:34 8.20673e-19 $lvl1=1 $lvl2=1
CB219 Y:36 VDD!:7 7.90226e-19 $lvl1=2 $lvl2=2
CB220 Y:38 VDD!:7 7.66562e-19 $lvl1=1 $lvl2=2
CB221 Y:38 VDD!:24 7.58302e-19 $lvl1=1 $lvl2=2
CB222 Y:46 VDD!:13 7.49668e-19 $lvl1=1 $lvl2=2
CB223 Mmp0@8:d VDD!:27 7.48555e-19 $lvl1=4 $lvl2=2
CB224 Mmp0@4:d VDD!:19 7.42262e-19 $lvl1=4 $lvl2=2
CB225 Y:48 VDD!:7 7.40128e-19 $lvl1=1 $lvl2=2
CB226 Mmp0@4:d VDD!:15 7.39251e-19 $lvl1=4 $lvl2=2
CB227 Y:5 VDD! 7.38462e-19 $lvl1=2 $lvl2=1
CB228 Mmp0@4:d VDD!:6 7.29113e-19 $lvl1=4 $lvl2=2
CB229 Y:48 VDD!:15 7.1373e-19 $lvl1=1 $lvl2=2
CB230 Y:25 VDD!:7 7.11093e-19 $lvl1=2 $lvl2=2
CB231 Y:39 VDD!:7 6.67379e-19 $lvl1=1 $lvl2=2
CB232 Y:36 VDD!:8 6.58292e-19 $lvl1=2 $lvl2=4
CB233 Y:42 VDD!:15 6.56786e-19 $lvl1=1 $lvl2=2
CB234 Y:40 VDD!:15 6.45502e-19 $lvl1=1 $lvl2=2
CB235 Mmp0@8:d VDD!:24 6.37844e-19 $lvl1=4 $lvl2=2
CB236 Y:34 VDD!:34 6.08628e-19 $lvl1=2 $lvl2=1
CB237 Y:47 VDD!:1 6.0075e-19 $lvl1=1 $lvl2=2
CB238 Y:42 VDD!:33 5.96287e-19 $lvl1=1 $lvl2=1
CB239 Y:24 VDD!:8 5.88016e-19 $lvl1=2 $lvl2=4
CB240 Mmp0@10:d VDD!:24 5.73183e-19 $lvl1=4 $lvl2=2
CB241 Mmp0@10:d VDD!:28 5.54093e-19 $lvl1=4 $lvl2=2
CB242 Y:48 VDD!:10 5.29232e-19 $lvl1=1 $lvl2=2
CB243 Mmp0@6:d VDD!:19 5.27297e-19 $lvl1=4 $lvl2=2
CB244 Y:45 VDD!:15 5.27169e-19 $lvl1=1 $lvl2=2
CB245 Y:32 VDD!:7 4.8764e-19 $lvl1=2 $lvl2=2
CB246 Y:15 VDD! 4.84589e-19 $lvl1=2 $lvl2=1
CB247 Y:19 Mmp0@5:s 4.78428e-19 $lvl1=2 $lvl2=4
CB248 Y:43 VDD!:13 4.7792e-19 $lvl1=1 $lvl2=2
CB249 Y:46 VDD!:23 4.70687e-19 $lvl1=1 $lvl2=2
CB250 Y:20 VDD!:34 4.66528e-19 $lvl1=2 $lvl2=1
CB251 Y:10 VDD!:8 4.63824e-19 $lvl1=2 $lvl2=4
CB252 Y:42 VDD!:23 4.60199e-19 $lvl1=1 $lvl2=2
CB253 Y:40 VDD!:8 4.46018e-19 $lvl1=1 $lvl2=4
CB254 Mmp0@4:d VDD!:7 4.42949e-19 $lvl1=4 $lvl2=2
CB255 Y:1 VDD!:35 4.36036e-19 $lvl1=2 $lvl2=1
CB256 Y:2 VDD!:34 4.35165e-19 $lvl1=2 $lvl2=1
CB257 Mmp0@8:d VDD!:23 4.30689e-19 $lvl1=4 $lvl2=2
CB258 Y:20 VDD!:7 4.29646e-19 $lvl1=2 $lvl2=2
CB259 Y:10 VDD!:7 4.26271e-19 $lvl1=2 $lvl2=2
CB260 Y:42 VDD!:27 4.25161e-19 $lvl1=1 $lvl2=2
CB261 Y:38 Mmp0@11:s 4.13268e-19 $lvl1=1 $lvl2=4
CB262 Y:43 VDD!:35 4.07235e-19 $lvl1=1 $lvl2=1
CB263 Y:45 VDD!:33 4.01433e-19 $lvl1=1 $lvl2=1
CB264 Y:11 VDD!:34 4.01121e-19 $lvl1=2 $lvl2=1
CB265 Y:40 VDD!:28 3.93949e-19 $lvl1=1 $lvl2=2
CB266 Y:44 VDD!:13 3.93776e-19 $lvl1=1 $lvl2=2
CB267 Mmp0@8:d VDD!:7 3.93601e-19 $lvl1=4 $lvl2=2
CB268 Y:32 VDD!:34 3.76773e-19 $lvl1=2 $lvl2=1
CB269 Y:24 Mmp0@7:s 3.7159e-19 $lvl1=2 $lvl2=4
CB270 Y:43 VDD!:1 3.67393e-19 $lvl1=1 $lvl2=2
CB271 Y:1 VDD!:7 3.67245e-19 $lvl1=2 $lvl2=2
CB272 Y:36 Mmp0@11:s 3.50257e-19 $lvl1=2 $lvl2=4
CB273 Mmp0:d VDD!:1 3.49566e-19 $lvl1=4 $lvl2=2
CB274 Y:29 VDD!:19 3.46169e-19 $lvl1=2 $lvl2=2
CB275 Y:45 VDD!:6 3.42831e-19 $lvl1=1 $lvl2=2
CB276 Y:19 VDD!:13 3.3004e-19 $lvl1=2 $lvl2=2
CB277 Y:40 VDD!:32 3.25925e-19 $lvl1=1 $lvl2=2
CB278 Y:20 VDD!:6 3.1714e-19 $lvl1=2 $lvl2=2
CB279 Y:45 VDD!:24 3.14013e-19 $lvl1=1 $lvl2=2
CB280 Y:9 VDD! 3.11357e-19 $lvl1=2 $lvl2=1
CB281 Mmp0@10:d VDD!:27 3.08617e-19 $lvl1=4 $lvl2=2
CB282 Y:28 VDD!:15 3.01349e-19 $lvl1=2 $lvl2=2
CB283 Y:29 VDD!:23 8.1055e-17 $lvl1=2 $lvl2=2
CB284 Y:47 VDD!:15 1.5536e-17 $lvl1=1 $lvl2=2
CB285 Y:48 VDD! 1.34925e-17 $lvl1=1 $lvl2=1
CB286 Y:47 VDD! 1.0247e-17 $lvl1=1 $lvl2=1
CB287 Y:46 VDD! 1.00785e-17 $lvl1=1 $lvl2=1
CB288 Y:36 VDD!:27 7.87632e-17 $lvl1=2 $lvl2=2
CB289 Y:45 VDD! 1.08396e-17 $lvl1=1 $lvl2=1
CB290 Y:44 VDD! 1.39609e-17 $lvl1=1 $lvl2=1
CB291 Y:24 VDD!:7 1.46485e-17 $lvl1=2 $lvl2=2
CB292 Y:1 VDD!:1 7.31288e-17 $lvl1=2 $lvl2=2
CB293 Y:38 VDD!:33 1.02821e-17 $lvl1=1 $lvl2=1
CB294 Y:43 VDD! 1.96824e-17 $lvl1=1 $lvl2=1
CB295 Y:48 VDD!:34 3.52238e-17 $lvl1=1 $lvl2=1
CB296 Y:38 VDD! 2.31483e-17 $lvl1=1 $lvl2=1
CB297 Y:40 VDD!:23 2.29533e-17 $lvl1=1 $lvl2=2
CB298 Y:40 VDD! 3.40891e-17 $lvl1=1 $lvl2=1
CB299 Y:10 VDD!:13 8.12388e-17 $lvl1=2 $lvl2=2
CB300 Y:42 VDD! 2.61139e-17 $lvl1=1 $lvl2=1
CB301 Y:24 VDD!:19 7.28971e-17 $lvl1=2 $lvl2=2
CB302 Y:19 VDD!:15 7.70356e-17 $lvl1=2 $lvl2=2
CB303 Y:39 VDD!:34 2.31537e-17 $lvl1=1 $lvl2=1
CB304 Y:47 VDD!:34 4.40505e-17 $lvl1=1 $lvl2=1
CB305 Y:29 VDD!:27 8.27107e-17 $lvl1=2 $lvl2=2
CB306 Y:36 VDD! 1.56614e-17 $lvl1=2 $lvl2=1
CB307 Y:1 VDD!:13 7.5572e-17 $lvl1=2 $lvl2=2
CB308 Y:38 VDD!:34 2.67351e-17 $lvl1=1 $lvl2=1
CB309 Y:39 VDD!:27 1.46607e-17 $lvl1=1 $lvl2=2
CB310 Y:45 VDD!:23 1.42023e-17 $lvl1=1 $lvl2=2
CB311 Y:29 VDD! 1.16301e-17 $lvl1=2 $lvl2=1
CB312 Y:46 VDD!:34 4.34955e-17 $lvl1=1 $lvl2=1
CB313 Y:36 VDD!:31 8.04254e-17 $lvl1=2 $lvl2=2
CB314 Y:10 VDD!:15 7.60547e-17 $lvl1=2 $lvl2=2
CB315 Y:47 VDD!:13 1.54898e-17 $lvl1=1 $lvl2=2
CB316 Y:45 VDD!:34 4.73455e-17 $lvl1=1 $lvl2=1
CB317 Y:24 VDD!:23 6.88184e-17 $lvl1=2 $lvl2=2
CB318 Y:45 VDD!:19 1.65766e-17 $lvl1=1 $lvl2=2
CB319 Y:19 VDD!:19 7.7881e-17 $lvl1=2 $lvl2=2
CB320 Y:40 VDD!:34 5.06215e-17 $lvl1=1 $lvl2=1
CB321 Y:48 VDD!:13 1.45502e-17 $lvl1=1 $lvl2=2
CB322 Y:46 VDD!:15 1.57089e-17 $lvl1=1 $lvl2=2
CB323 Y:40 VDD!:27 2.43348e-17 $lvl1=1 $lvl2=2
CB324 Y:46 VDD!:19 1.42734e-17 $lvl1=1 $lvl2=2
CB325 Y:38 VDD!:31 2.80631e-17 $lvl1=1 $lvl2=2
ReB54 Y:38 Y:39 0.239224 $metal1  $L=0.555 $W=0.290000 $SI_W=0.29 $TYPE=10 $DIR=0 $LLX=4.990000 $LLY=3.210000 $URX=5.545000 $URY=3.500000 $lvl=1
ReB55 Y:39 Y:40 0.366272 $metal1  $L=0.84975 $W=0.290000 $SI_W=0.29 $TYPE=10 $DIR=0 $LLX=4.140000 $LLY=3.210000 $URX=4.990000 $URY=3.500000 $lvl=1
ReB56 Y:40 Y:41 0.165973 $metal1  $L=0.36025 $W=0.260000 $SI_W=0.26 $TYPE=10 $DIR=1 $LLX=4.010000 $LLY=2.995000 $URX=4.270000 $URY=3.355000 $lvl=1
ReB57 Y:41 Y 0.490385 $metal1  $L=1.02 $W=0.260000 $SI_W=0.26 $TYPE=10 $DIR=1 $LLX=4.010000 $LLY=1.975000 $URX=4.270000 $URY=2.995000 $lvl=1
ReB58 Y Y:42 0.579219 $metal1  $L=1.21975 $W=0.260000 $SI_W=0.26 $TYPE=10 $DIR=1 $LLX=4.010000 $LLY=0.755000 $URX=4.270000 $URY=1.975000 $lvl=1
ReB59 Y:42 Y:43 1.116487 $metal1  $L=2.59025 $W=0.290000 $SI_W=0.29 $TYPE=10 $DIR=0 $LLX=1.550000 $LLY=0.610000 $URX=4.140000 $URY=0.900000 $lvl=1
ReB60 Y:43 Y:44 0.370690 $metal1  $L=0.86 $W=0.290000 $SI_W=0.29 $TYPE=10 $DIR=0 $LLX=0.690000 $LLY=0.610000 $URX=1.550000 $URY=0.900000 $lvl=1
ReB61 Y:40 Y:45 0.375108 $metal1  $L=0.87025 $W=0.290000 $SI_W=0.29 $TYPE=10 $DIR=0 $LLX=3.270000 $LLY=3.210000 $URX=4.140000 $URY=3.500000 $lvl=1
ReB62 Y:45 Y:46 0.370690 $metal1  $L=0.86 $W=0.290000 $SI_W=0.29 $TYPE=10 $DIR=0 $LLX=2.410000 $LLY=3.210000 $URX=3.270000 $URY=3.500000 $lvl=1
ReB63 Y:46 Y:47 0.370690 $metal1  $L=0.86 $W=0.290000 $SI_W=0.29 $TYPE=10 $DIR=0 $LLX=1.550000 $LLY=3.210000 $URX=2.410000 $URY=3.500000 $lvl=1
ReB64 Y:47 Y:48 0.370690 $metal1  $L=0.86 $W=0.290000 $SI_W=0.29 $TYPE=10 $DIR=0 $LLX=0.690000 $LLY=3.210000 $URX=1.550000 $URY=3.500000 $lvl=1
ReB65 Y:42 Y:49 0.057866 $metal1  $L=0.13425 $W=0.290000 $SI_W=0.29 $TYPE=10 $DIR=0 $LLX=4.140000 $LLY=0.610000 $URX=4.274000 $URY=0.900000 $lvl=1
RfB66 Y:1 Y:2 14.682353 $li  $L=0.195 $W=0.170000 $SI_W=0.17 $TYPE=10 $DIR=1 $LLX=0.605000 $LLY=3.355000 $URX=0.775000 $URY=3.550000 $lvl=2
RfB67 Y:2 Y:4 25.223530 $li  $L=0.335 $W=0.170000 $SI_W=0.17 $TYPE=10 $DIR=1 $LLX=0.605000 $LLY=3.020000 $URX=0.775000 $URY=3.355000 $lvl=2
RfB68 Y:4 Y:5 39.905884 $li  $L=0.53 $W=0.170000 $SI_W=0.17 $TYPE=10 $DIR=1 $LLX=0.605000 $LLY=2.490000 $URX=0.775000 $URY=3.020000 $lvl=2
RfB69 Y:6 Y:8 28.611765 $li  $L=0.38 $W=0.170000 $SI_W=0.17 $TYPE=10 $DIR=1 $LLX=0.605000 $LLY=0.970000 $URX=0.775000 $URY=1.350000 $lvl=2
RfB70 Y:8 Y:9 16.188236 $li  $L=0.215 $W=0.170000 $SI_W=0.17 $TYPE=10 $DIR=1 $LLX=0.605000 $LLY=0.755000 $URX=0.775000 $URY=0.970000 $lvl=2
RfB71 Y:10 Y:11 14.682353 $li  $L=0.195 $W=0.170000 $SI_W=0.17 $TYPE=10 $DIR=1 $LLX=1.465000 $LLY=3.355000 $URX=1.635000 $URY=3.550000 $lvl=2
RfB72 Y:11 Y:13 25.223530 $li  $L=0.335 $W=0.170000 $SI_W=0.17 $TYPE=10 $DIR=1 $LLX=1.465000 $LLY=3.020000 $URX=1.635000 $URY=3.355000 $lvl=2
RfB73 Y:13 Y:14 39.905884 $li  $L=0.53 $W=0.170000 $SI_W=0.17 $TYPE=10 $DIR=1 $LLX=1.465000 $LLY=2.490000 $URX=1.635000 $URY=3.020000 $lvl=2
RfB74 Y:15 Y:17 28.611765 $li  $L=0.38 $W=0.170000 $SI_W=0.17 $TYPE=10 $DIR=1 $LLX=1.465000 $LLY=0.970000 $URX=1.635000 $URY=1.350000 $lvl=2