*
*|DSPF 1.5
*
*|DATE "Wed Jan  8 22:43:19 2025"
*|VENDOR "Cadence Design Systems"
*|PROGRAM "Cadence Quantus Extraction"
*|VERSION "22.1.0-p089 Linux 64 bit - (Thu Jan 19 11:47:08 PST 2023)"
*|DESIGN CLKMX2X2_HS
*|DIVIDER /
*|DELIMITER :
*|DeviceFingerDelim "@"
*|BUSBIT []
*|GLOBAL_TEMPERATURE 25
*|OPERATING_TEMPERATURE 25

** *VIA_COVERAGE_CODES
** *index FF FS FP FU SF SS SP SU PF PS PP PU UF US UP UU X_by_Y
** * "FF" stands for Full landing and Full coverage
** *0 0 0 0 0 0 0 0 0 0 0 0 0 0 0 0 0
** *1 0 0 0 0 0 0 0 0 0 0 0 0 0 0 0 1 1x1
** *2 0 0 0 0 0 0 0 0 0 0 0 0 0 0 1 0 1x1
** *3 0 0 0 0 0 0 0 0 0 0 0 0 0 1 0 0 1x1
** *4 0 0 0 0 0 0 0 0 0 0 0 0 1 0 0 0 1x1
** *5 0 0 0 0 0 0 0 0 0 0 0 1 0 0 0 0 1x1
** *6 0 0 0 0 0 0 0 0 0 0 1 0 0 0 0 0 1x1
** *7 0 0 0 0 0 0 0 0 0 1 0 0 0 0 0 0 1x1
** *8 0 0 0 0 0 0 0 0 1 0 0 0 0 0 0 0 1x1
** *9 0 0 0 0 0 0 0 1 0 0 0 0 0 0 0 0 1x1
** *10 0 0 0 0 0 0 1 0 0 0 0 0 0 0 0 0 1x1
** *11 0 0 0 0 0 1 0 0 0 0 0 0 0 0 0 0 1x1
** *12 0 0 0 0 1 0 0 0 0 0 0 0 0 0 0 0 1x1
** *13 0 0 0 1 0 0 0 0 0 0 0 0 0 0 0 0 1x1
** *14 0 0 1 0 0 0 0 0 0 0 0 0 0 0 0 0 1x1
** *15 0 1 0 0 0 0 0 0 0 0 0 0 0 0 0 0 1x1
** *16 1 0 0 0 0 0 0 0 0 0 0 0 0 0 0 0 1x1

** *RESISTOR_TYPES
** *1 SHORTING_ELEMENT
** *2 PRES_NG
** *3 PRES_PG
** *4 PRES_NF
** *5 PRES_PF
** *6 TCN_NDIFF
** *7 TCN_PDIFF
** *8 TCN_NFIELD
** *9 TCN_PFIELD
** *10 QUALITY_EXTRACTED
** *11 GCNLAND
** *12 TCNLAND
** *13 DUMMY
** *14 RSD
** *15 BRIDGE

** *RESISTOR_CURRENT_DIRECTION
** *0 HORIZONTAL
** *1 VERTICAL
** *2 45 DEGREE

** QRC_TECH_DIR /vols/wfo_devel/projects/reference_SKY130/tech/sky130_release_0.0.4/quantus/extraction/typical 
** HIERARCHICAL_SPLIT_PINS_DELIMITER '%'
** caps2d version: 10
*
.SUBCKT  CLKMX2X2_HS A B S0 Y
*
*Net Section
*
*|GROUND_NET VSS!
*
*LAYER_MAP
*0 none
*1 metal1
*2 li
*3 poly
*4 diff
*5 licon_diff
*6 mcon
*7 licon
*8 FOX

*|NET net140 2.66674e-16
*|I (Mmn4:s Mmn4 s X 0 1.8405 0.8025) // $llx=1.8405 $lly=0.8025 $urx=1.8405 $ury=0.8025 $lvl=4
*|I (Mmn3:d Mmn3 d X 0 2.1195 0.8025) // $llx=2.1195 $lly=0.8025 $urx=2.1195 $ury=0.8025 $lvl=4
*|S (net140 1.9800 1.0145) // $llx=1.9800 $lly=1.0145 $urx=1.9800 $ury=1.0145 $lvl=2
*|S (net140:3 1.9800 0.8000) // $llx=1.9800 $lly=0.8000 $urx=1.9800 $ury=0.8000 $lvl=2
*|S (net140:4 1.9800 0.5900) // $llx=1.9800 $lly=0.5900 $urx=1.9800 $ury=0.5900 $lvl=2
CJ1 Mmn4:s VSS! 9.75856e-19 $lvl=4
CJ2 net140:3 VSS! 6.47548e-18 $lvl=2
CJ3 net140:4 VSS! 1.92562e-18 $lvl=2
CJ4 net140 VSS! 2.62572e-18 $lvl=2
CJ5 net140:4 VSS!:6 1.31963e-18 $lvl1=2 $lvl2=2
CJ6 Mmn4:s VSS!:9 1.28336e-18 $lvl1=4 $lvl2=2
CJ7 net140:3 VSS!:6 7.08848e-19 $lvl1=2 $lvl2=2
CJ8 Mmn4:s VSS!:13 6.97359e-19 $lvl1=4 $lvl2=2
CJ9 net140:3 VSS!:7 6.65175e-19 $lvl1=2 $lvl2=4
CJ10 net140:3 Mmn5:s 4.31538e-19 $lvl1=2 $lvl2=4
CJ11 net140:3 VSS!:13 1.95816e-17 $lvl1=2 $lvl2=2
CJ12 net140:4 VSS!:13 4.4164e-18 $lvl1=2 $lvl2=2
CJ13 net140 VSS!:13 4.19064e-18 $lvl1=2 $lvl2=2
CJ14 net140:4 VSS!:19 2.85207e-18 $lvl1=2 $lvl2=1
CJ15 net140:3 VSS!:9 6.71245e-18 $lvl1=2 $lvl2=2
CJ16 net140:4 VSS!:9 6.80897e-18 $lvl1=2 $lvl2=2
CJ17 net140:3 VSS!:19 2.16079e-18 $lvl1=2 $lvl2=1
RfJ189 net140 net140:3 16.150589 $li  $L=0.2145 $W=0.170000 $SI_W=0.17 $TYPE=10 $DIR=1 $LLX=1.895000 $LLY=0.800000 $URX=2.065000 $URY=1.014500 $lvl=2
RfJ190 net140:3 net140:4 15.811765 $li  $L=0.21 $W=0.170000 $SI_W=0.17 $TYPE=10 $DIR=1 $LLX=1.895000 $LLY=0.590000 $URX=2.065000 $URY=0.800000 $lvl=2
RhJ191 Mmn4:s net140:3 15.000000 $licon_diff  $L=0.17 $W=0.17 $A=0.0289 $VC=0 $SAVL=0 $SAVC=0 $SI_A=0.0289 $COVER_DIR=0 $LLX=0.000000 $LLY=0.000000 $URX=0.170000 $URY=0.170000 $lvl=5
RmwJ192 Mmn3:d Mmn4:s 0.001000 $diff $W=1000000 $SI_W=1000000 $TYPE=1 $DIR=0
*
*|NET net115 2.94515e-16
*|I (Mmp3:d Mmp3 d X 0 2.1195 3.3150) // $llx=2.1195 $lly=3.3150 $urx=2.1195 $ury=3.3150 $lvl=4
*|I (Mmp4:s Mmp4 s X 0 1.8405 3.3150) // $llx=1.8405 $lly=3.3150 $urx=1.8405 $ury=3.3150 $lvl=4
*|S (net115 1.9800 3.5495) // $llx=1.9800 $lly=3.5495 $urx=1.9800 $ury=3.5495 $lvl=2
*|S (net115:3 1.9800 3.2350) // $llx=1.9800 $lly=3.2350 $urx=1.9800 $ury=3.2350 $lvl=2
*|S (net115:4 1.9800 2.9250) // $llx=1.9800 $lly=2.9250 $urx=1.9800 $ury=2.9250 $lvl=2
CJ18 Mmp3:d VSS! 6.86376e-19 $lvl=4
CJ19 net115:3 VSS! 3.49864e-18 $lvl=2
CJ20 net115:4 VSS! 3.43369e-18 $lvl=2
CJ21 net115 VSS! 2.40722e-18 $lvl=2
RfJ193 net115 net115:3 23.680000 $li  $L=0.3145 $W=0.170000 $SI_W=0.17 $TYPE=10 $DIR=1 $LLX=1.895000 $LLY=3.235000 $URX=2.065000 $URY=3.549500 $lvl=2
RfJ194 net115:3 net115:4 23.341177 $li  $L=0.31 $W=0.170000 $SI_W=0.17 $TYPE=10 $DIR=1 $LLX=1.895000 $LLY=2.925000 $URX=2.065000 $URY=3.235000 $lvl=2
Rh_2_J195 Mmp3:d net115:3 15.000000 $licon_diff  $L=0.17 $W=0.17 $A=0.0289 $VC=0 $SAVL=0 $SAVC=0 $SI_A=0.0289 $COVER_DIR=0 $LLX=0.000000 $LLY=0.000000 $URX=0.170000 $URY=0.170000 $lvl=5
RmwJ196 Mmp4:s Mmp3:d 0.001000 $diff $W=1000000 $SI_W=1000000 $TYPE=1 $DIR=0
*
*|NET Y 1.6215e-15
*|P (Y X 0 2.7750 2.4250) // $llx=2.7750 $lly=2.4250 $urx=2.7750 $ury=2.4250 $lvl=1
*|I (Mmp5:d Mmp5 d X 0 2.7605 3.1250) // $llx=2.7605 $lly=3.1250 $urx=2.7605 $ury=3.1250 $lvl=4
*|I (Mmp5@1:d Mmp5@1 d X 0 3.0395 3.1250) // $llx=3.0395 $lly=3.1250 $urx=3.0395 $ury=3.1250 $lvl=4
*|I (Mmn5:d Mmn5 d X 0 2.7605 0.9700) // $llx=2.7605 $lly=0.9700 $urx=2.7605 $ury=0.9700 $lvl=4
*|I (Mmn5@1:d Mmn5@1 d X 0 3.0395 0.9700) // $llx=3.0395 $lly=0.9700 $urx=3.0395 $ury=0.9700 $lvl=4
*|S (Y:1 2.9000 3.7050) // $llx=2.9000 $lly=3.7050 $urx=2.9000 $ury=3.7050 $lvl=2
*|S (Y:3 2.9000 3.1250) // $llx=2.9000 $lly=3.1250 $urx=2.9000 $ury=3.1250 $lvl=2
*|S (Y:4 2.9000 2.9450) // $llx=2.9000 $lly=2.9450 $urx=2.9000 $ury=2.9450 $lvl=2
*|S (Y:5 2.9000 1.3500) // $llx=2.9000 $lly=1.3500 $urx=2.9000 $ury=1.3500 $lvl=2
*|S (Y:6 2.9000 1.0050) // $llx=2.9000 $lly=1.0050 $urx=2.9000 $ury=1.0050 $lvl=2
*|S (Y:8 2.9000 0.9700) // $llx=2.9000 $lly=0.9700 $urx=2.9000 $ury=0.9700 $lvl=2
*|S (Y:9 2.9000 0.5900) // $llx=2.9000 $lly=0.5900 $urx=2.9000 $ury=0.5900 $lvl=2
*|S (Y:10 2.8225 3.4500) // $llx=2.8225 $lly=3.4500 $urx=2.8225 $ury=3.4500 $lvl=1
*|S (Y:11 2.9000 2.9450) // $llx=2.9000 $lly=2.9450 $urx=2.9000 $ury=2.9450 $lvl=1
*|S (Y:12 2.9000 1.0050) // $llx=2.9000 $lly=1.0050 $urx=2.9000 $ury=1.0050 $lvl=1
*|S (Y:13 2.8225 0.6800) // $llx=2.8225 $lly=0.6800 $urx=2.8225 $ury=0.6800 $lvl=1
CD1 Mmn5:d VSS! 8.36595e-19 $lvl=4
CD2 Mmp5:d VSS! 7.53323e-19 $lvl=4
CD3 Y:11 VSS! 1.19982e-17 $lvl=1
CD4 Y:10 VSS! 2.9282e-18 $lvl=1
CD5 Y:13 VSS! 1.14961e-17 $lvl=1
CD6 Y:5 VSS! 4.56261e-18 $lvl=2
CD7 Y:9 VSS! 1.4623e-18 $lvl=2
CD8 Y:1 VSS! 5.87618e-18 $lvl=2
CD9 Y:6 VSS! 4.01264e-18 $lvl=2
CD10 Y:4 VSS! 3.76075e-18 $lvl=2
CD11 Y VSS! 6.75851e-18 $lvl=1
CD12 Y n0:31 6.93598e-18 $lvl1=1 $lvl2=2
CD13 Y:6 n0:31 4.5543e-18 $lvl1=2 $lvl2=2
CD14 Y:10 n0:39 2.81177e-18 $lvl1=1 $lvl2=1
CD15 Y:1 n0:17 2.58551e-18 $lvl1=2 $lvl2=3
CD16 Y n0:17 2.58164e-18 $lvl1=1 $lvl2=3
CD17 Y:13 n0:17 2.51968e-18 $lvl1=1 $lvl2=3
CD18 Mmn5:d n0:17 2.42028e-18 $lvl1=4 $lvl2=3
CD19 Y:13 n0:33 2.02554e-18 $lvl1=1 $lvl2=2
CD20 Y:13 n0:32 1.83291e-18 $lvl1=1 $lvl2=2
CD21 Y:1 n0:31 1.73567e-18 $lvl1=2 $lvl2=2
CD22 Y n0:39 1.69797e-18 $lvl1=1 $lvl2=1
CD23 Y:11 n0:42 1.41999e-18 $lvl1=1 $lvl2=1
CD24 Y n0:42 1.25454e-18 $lvl1=1 $lvl2=1
CD25 Y:13 n0:39 1.20336e-18 $lvl1=1 $lvl2=1
CD26 Y:9 n0 8.78951e-19 $lvl1=2 $lvl2=3
CD27 Y:9 n0:21 8.70566e-19 $lvl1=2 $lvl2=3
CD28 Y:11 n0:31 5.61491e-19 $lvl1=1 $lvl2=2
CD29 Y:5 n0 1.24802e-16 $lvl1=2 $lvl2=3
CD30 Y:1 n0:15 1.9102e-16 $lvl1=2 $lvl2=3
CD31 Y:5 n0:21 1.26501e-16 $lvl1=2 $lvl2=3
CD32 Y:5 n0:17 1.49264e-17 $lvl1=2 $lvl2=3
CD33 Y:5 n0:31 1.60723e-17 $lvl1=2 $lvl2=2
CD34 Y:13 n0:42 1.55197e-17 $lvl1=1 $lvl2=1
CD35 Y:1 n0:23 1.94517e-16 $lvl1=2 $lvl2=3
CD36 Y:13 n0:31 2.25569e-17 $lvl1=1 $lvl2=2
CD37 Y:11 n0:39 9.81779e-18 $lvl1=1 $lvl2=1
CD38 Y:9 VSS!:13 7.20442e-18 $lvl1=2 $lvl2=2
CD39 Y:9 VSS!:1 6.77545e-18 $lvl1=2 $lvl2=2
CD40 Y:13 VSS!:18 6.65501e-18 $lvl1=1 $lvl2=1
CD41 Y:9 VSS!:4 3.7888e-18 $lvl1=2 $lvl2=2
CD42 Y:9 VSS!:9 3.7058e-18 $lvl1=2 $lvl2=2
CD43 Y:13 VSS!:9 2.7095e-18 $lvl1=1 $lvl2=2
CD44 Y:5 VSS!:9 2.33193e-18 $lvl1=2 $lvl2=2
CD45 Y:6 VSS!:19 2.19994e-18 $lvl1=2 $lvl2=1
CD46 Y:9 VSS!:19 2.03635e-18 $lvl1=2 $lvl2=1
CD47 Y:5 VSS!:4 2.02237e-18 $lvl1=2 $lvl2=2
CD48 Y:13 VSS!:4 2.00082e-18 $lvl1=1 $lvl2=2
CD49 Y VSS!:1 1.68747e-18 $lvl1=1 $lvl2=2
CD50 Y:13 VSS!:6 1.62761e-18 $lvl1=1 $lvl2=2
CD51 Y VSS!:19 1.50267e-18 $lvl1=1 $lvl2=1
CD52 Mmn5:d VSS!:9 1.49009e-18 $lvl1=4 $lvl2=2
CD53 Y:11 VSS!:19 1.1885e-18 $lvl1=1 $lvl2=1
CD54 Y:6 VSS!:9 1.14519e-18 $lvl1=2 $lvl2=2
CD55 Y:6 VSS!:4 9.87504e-19 $lvl1=2 $lvl2=2
CD56 Y:9 VSS!:6 8.67167e-19 $lvl1=2 $lvl2=2
CD57 Mmn5:d VSS!:1 7.82499e-19 $lvl1=4 $lvl2=2
CD58 Y:5 VSS!:7 6.96109e-19 $lvl1=2 $lvl2=4
CD59 Mmn5:d VSS!:13 6.47998e-19 $lvl1=4 $lvl2=2
CD60 Y:11 VSS!:18 6.4235e-19 $lvl1=1 $lvl2=1
CD61 Y:13 VSS!:11 6.05648e-19 $lvl1=1 $lvl2=2
CD62 Y VSS!:18 5.76758e-19 $lvl1=1 $lvl2=1
CD63 Y:13 VSS!:1 1.5666e-17 $lvl1=1 $lvl2=2
CD64 Y:13 VSS!:13 1.65838e-17 $lvl1=1 $lvl2=2
CD65 Y:6 VSS!:13 1.67318e-17 $lvl1=2 $lvl2=2
CD66 Y:5 VSS!:13 3.77896e-17 $lvl1=2 $lvl2=2
CD67 Y:6 VSS!:1 1.72557e-17 $lvl1=2 $lvl2=2
CD68 Y:13 VSS!:19 3.64793e-17 $lvl1=1 $lvl2=1
CD69 Y:5 VSS!:1 4.05152e-17 $lvl1=2 $lvl2=2
CD70 Y:4 VDD!:11 7.09216e-18 $lvl1=2 $lvl2=2
CD71 Y VDD!:16 5.54921e-18 $lvl1=1 $lvl2=2
CD72 Y:1 VDD!:19 4.94754e-18 $lvl1=2 $lvl2=1
CD73 Y:11 VDD!:18 4.53754e-18 $lvl1=1 $lvl2=1
CD74 Y:10 VDD!:11 4.26346e-18 $lvl1=1 $lvl2=2
CD75 Y:10 VDD! 3.84142e-18 $lvl1=1 $lvl2=1
CD76 Y:10 VDD!:16 3.32078e-18 $lvl1=1 $lvl2=2
CD77 Y VDD!:11 2.39829e-18 $lvl1=1 $lvl2=2
CD78 Y:13 VDD!:16 2.17441e-18 $lvl1=1 $lvl2=2
CD79 Y:13 VDD!:19 1.76458e-18 $lvl1=1 $lvl2=1
CD80 Y VDD!:19 1.58417e-18 $lvl1=1 $lvl2=1
CD81 Y:1 VDD!:6 1.50421e-18 $lvl1=2 $lvl2=2
CD82 Y:10 VDD!:18 1.49547e-18 $lvl1=1 $lvl2=1
CD83 Y:1 Mmp5@1:s 1.4583e-18 $lvl1=2 $lvl2=4
CD84 Mmp5:d VDD!:4 1.3855e-18 $lvl1=4 $lvl2=2
CD85 Y:4 VDD! 1.25522e-18 $lvl1=2 $lvl2=1
CD86 Y:10 VDD!:4 1.13115e-18 $lvl1=1 $lvl2=2
CD87 Mmp5:d VDD!:11 1.10393e-18 $lvl1=4 $lvl2=2
CD88 Y:6 VDD! 1.07229e-18 $lvl1=2 $lvl2=1
CD89 Y:1 VDD!:7 1.03384e-18 $lvl1=2 $lvl2=4
CD90 Y:4 VDD!:19 9.94611e-19 $lvl1=2 $lvl2=1
CD91 Mmp5:d VDD!:16 9.00644e-19 $lvl1=4 $lvl2=2
CD92 Y:10 VDD!:6 8.94401e-19 $lvl1=1 $lvl2=2
CD93 Y:11 VDD!:13 8.80162e-19 $lvl1=1 $lvl2=2
CD94 Mmp5:d VDD!:13 8.62449e-19 $lvl1=4 $lvl2=2
CD95 Y:11 VDD!:4 7.35661e-19 $lvl1=1 $lvl2=2
CD96 Y:1 Mmp5:s 7.31796e-19 $lvl1=2 $lvl2=4
CD97 Y:10 VDD!:13 7.10973e-19 $lvl1=1 $lvl2=2
CD98 Y:1 VDD!:16 8.57472e-17 $lvl1=2 $lvl2=2
CD99 Y:4 VDD!:16 8.71371e-18 $lvl1=2 $lvl2=2
CD100 Y:1 VDD!:13 1.02635e-17 $lvl1=2 $lvl2=2
CD101 Y:11 VDD!:16 1.54683e-17 $lvl1=1 $lvl2=2
CD102 Y:11 VDD! 2.19479e-17 $lvl1=1 $lvl2=1
CD103 Y:10 VDD!:19 2.05792e-17 $lvl1=1 $lvl2=1
CD104 Y:13 VDD! 2.97887e-17 $lvl1=1 $lvl2=1
CD105 Y VDD! 1.31811e-17 $lvl1=1 $lvl2=1
CD106 Y:1 VDD! 1.30317e-17 $lvl1=2 $lvl2=1
CD107 Y:11 VDD!:11 1.67105e-17 $lvl1=1 $lvl2=2
CD108 Y:11 VDD!:19 1.44219e-17 $lvl1=1 $lvl2=1
CD109 Y:1 VDD!:4 1.14304e-17 $lvl1=2 $lvl2=2
CD110 Y:1 VDD!:11 8.43343e-17 $lvl1=2 $lvl2=2
ReD48 Y:10 Y:11 0.163961 $metal1  $L=0.505 $W=0.385000 $SI_W=0.385 $TYPE=10 $DIR=1 $LLX=2.630000 $LLY=2.945000 $URX=3.015000 $URY=3.450000 $lvl=1
ReD49 Y:11 Y 0.168831 $metal1  $L=0.52 $W=0.385000 $SI_W=0.385 $TYPE=10 $DIR=1 $LLX=2.630000 $LLY=2.425000 $URX=3.015000 $URY=2.945000 $lvl=1
ReD50 Y Y:12 0.461039 $metal1  $L=1.42 $W=0.385000 $SI_W=0.385 $TYPE=10 $DIR=1 $LLX=2.630000 $LLY=1.005000 $URX=3.015000 $URY=2.425000 $lvl=1
ReD51 Y:12 Y:13 0.105519 $metal1  $L=0.325 $W=0.385000 $SI_W=0.385 $TYPE=10 $DIR=1 $LLX=2.630000 $LLY=0.680000 $URX=3.015000 $URY=1.005000 $lvl=1
RfD52 Y:1 Y:3 43.670586 $li  $L=0.58 $W=0.170000 $SI_W=0.17 $TYPE=10 $DIR=1 $LLX=2.815000 $LLY=3.125000 $URX=2.985000 $URY=3.705000 $lvl=2
RfD53 Y:3 Y:4 3.339130 $li  $L=0.18 $W=0.170000 $SI_W=0.69 $TYPE=10 $DIR=1 $LLX=2.815000 $LLY=2.945000 $URX=2.985000 $URY=3.125000 $lvl=2
RfD54 Y:5 Y:6 25.976471 $li  $L=0.345 $W=0.170000 $SI_W=0.17 $TYPE=10 $DIR=1 $LLX=2.815000 $LLY=1.005000 $URX=2.985000 $URY=1.350000 $lvl=2
RfD55 Y:6 Y:8 0.923711 $li  $L=0.035 $W=0.170000 $SI_W=0.485 $TYPE=10 $DIR=1 $LLX=2.815000 $LLY=0.970000 $URX=2.985000 $URY=1.005000 $lvl=2
RfD56 Y:8 Y:9 28.611765 $li  $L=0.38 $W=0.170000 $SI_W=0.17 $TYPE=10 $DIR=1 $LLX=2.815000 $LLY=0.590000 $URX=2.985000 $URY=0.970000 $lvl=2
RhD57 Mmn5:d Y:8 7.500000 $licon_diff  $A=0.0578 $VC=0 $SAVL=0 $SAVC=0 $SI_A=0.0578 $COVER_DIR=0 $LLX=0.000000 $LLY=0.000000 $URX=-0.057800 $URY=-2.000000 $lvl=5
Rh_2_D58 Mmp5:d Y:3 5.000000 $licon_diff  $A=0.0867 $VC=0 $SAVL=0 $SAVC=0 $SI_A=0.0867 $COVER_DIR=0 $LLX=0.000000 $LLY=0.000000 $URX=-0.086700 $URY=-3.000000 $lvl=5
RjD59 Y:4 Y:11 50.666668 $mcon  $A=0.0867 $VC=0 $SAVL=0 $SAVC=0 $SI_A=0.0867 $COVER_DIR=0 $LLX=0.000000 $LLY=0.000000 $URX=-0.086700 $URY=-3.000000 $lvl=6
RjD60 Y:6 Y:12 76.000000 $mcon  $A=0.0578 $VC=0 $SAVL=0 $SAVC=0 $SI_A=0.0578 $COVER_DIR=0 $LLX=0.000000 $LLY=0.000000 $URX=-0.057800 $URY=-2.000000 $lvl=6
RmwD61 Mmp5@1:d Mmp5:d 0.001000 $diff $W=1000000 $SI_W=1000000 $TYPE=1 $DIR=0
RmwD62 Mmn5@1:d Mmn5:d 0.001000 $diff $W=1000000 $SI_W=1000000 $TYPE=1 $DIR=0
*
*|NET VSS! 1.96828e-15
*|P (VSS! X 0 1.7300 0.0050) // $llx=1.7300 $lly=0.0050 $urx=1.7300 $ury=0.0050 $lvl=1
*|I (Mmn4:b Mmn4 b X 0 1.7650 0.8025) // $llx=1.7650 $lly=0.8025 $urx=1.7650 $ury=0.8025 $lvl=8
*|I (Mmn2:b Mmn2 b X 0 1.3350 0.8025) // $llx=1.3350 $lly=0.8025 $urx=1.3350 $ury=0.8025 $lvl=8
*|I (Mmn5:s Mmn5 s X 0 2.6095 0.9700) // $llx=2.6095 $lly=0.9700 $urx=2.6095 $ury=0.9700 $lvl=4
*|I (Mmn5:b Mmn5 b X 0 2.6850 0.9700) // $llx=2.6850 $lly=0.9700 $urx=2.6850 $ury=0.9700 $lvl=8
*|I (Mmn5@1:s Mmn5@1 s X 0 3.1905 0.9700) // $llx=3.1905 $lly=0.9700 $urx=3.1905 $ury=0.9700 $lvl=4
*|I (Mmn5@1:b Mmn5@1 b X 0 3.1150 0.9700) // $llx=3.1150 $lly=0.9700 $urx=3.1150 $ury=0.9700 $lvl=8
*|I (Mmn0:s Mmn0 s X 0 0.5505 0.8025) // $llx=0.5505 $lly=0.8025 $urx=0.5505 $ury=0.8025 $lvl=4
*|I (Mmn0:b Mmn0 b X 0 0.4750 0.8025) // $llx=0.4750 $lly=0.8025 $urx=0.4750 $ury=0.8025 $lvl=8
*|I (Mmn1:s Mmn1 s X 0 0.8295 0.8025) // $llx=0.8295 $lly=0.8025 $urx=0.8295 $ury=0.8025 $lvl=4
*|I (Mmn1:b Mmn1 b X 0 0.9050 0.8025) // $llx=0.9050 $lly=0.8025 $urx=0.9050 $ury=0.8025 $lvl=8
*|I (Mmn3:s Mmn3 s X 0 2.2705 0.8025) // $llx=2.2705 $lly=0.8025 $urx=2.2705 $ury=0.8025 $lvl=4
*|I (Mmn3:b Mmn3 b X 0 2.1950 0.8025) // $llx=2.1950 $lly=0.8025 $urx=2.1950 $ury=0.8025 $lvl=8
*|S (VSS!:1 3.3300 1.3500) // $llx=3.3300 $lly=1.3500 $urx=3.3300 $ury=1.3500 $lvl=2
*|S (VSS!:3 3.3300 0.9700) // $llx=3.3300 $lly=0.9700 $urx=3.3300 $ury=0.9700 $lvl=2
*|S (VSS!:4 3.3300 0.0000) // $llx=3.3300 $lly=0.0000 $urx=3.3300 $ury=0.0000 $lvl=2
*|S (VSS!:5 2.4700 0.0000) // $llx=2.4700 $lly=0.0000 $urx=2.4700 $ury=0.0000 $lvl=2
*|S (VSS!:6 1.8400 0.0000) // $llx=1.8400 $lly=0.0000 $urx=1.8400 $ury=0.0000 $lvl=2
*|S (VSS!:7 1.8400 0.0000) // $llx=1.8400 $lly=0.0000 $urx=1.8400 $ury=0.0000 $lvl=4
*|S (VSS!:9 0.6900 0.0000) // $llx=0.6900 $lly=0.0000 $urx=0.6900 $ury=0.0000 $lvl=2
*|S (VSS!:10 0.0000 0.0000) // $llx=0.0000 $lly=0.0000 $urx=0.0000 $ury=0.0000 $lvl=2
*|S (VSS!:11 3.6795 0.0000) // $llx=3.6795 $lly=0.0000 $urx=3.6795 $ury=0.0000 $lvl=2
*|S (VSS!:13 2.4700 0.9700) // $llx=2.4700 $lly=0.9700 $urx=2.4700 $ury=0.9700 $lvl=2
*|S (VSS!:14 2.4700 1.3500) // $llx=2.4700 $lly=1.3500 $urx=2.4700 $ury=1.3500 $lvl=2
*|S (VSS!:16 0.6900 0.8000) // $llx=0.6900 $lly=0.8000 $urx=0.6900 $ury=0.8000 $lvl=2
*|S (VSS!:17 0.6900 1.0150) // $llx=0.6900 $lly=1.0150 $urx=0.6900 $ury=1.0150 $lvl=2
*|S (VSS!:18 3.6800 0.0000) // $llx=3.6800 $lly=0.0000 $urx=3.6800 $ury=0.0000 $lvl=1
*|S (VSS!:19 1.8400 0.0000) // $llx=1.8400 $lly=0.0000 $urx=1.8400 $ury=0.0000 $lvl=1
*|S (VSS!:20 0.0000 0.0000) // $llx=0.0000 $lly=0.0000 $urx=0.0000 $ury=0.0000 $lvl=1
ReF91 VSS!:18 VSS!:19 0.575000 $metal1  $L=1.84 $W=0.400000 $SI_W=0.4 $TYPE=10 $DIR=0 $LLX=1.840000 $LLY=-0.199500 $URX=3.680000 $URY=0.200000 $lvl=1
ReF92 VSS!:19 VSS! 0.034375 $metal1  $L=0.11 $W=0.400000 $SI_W=0.4 $TYPE=10 $DIR=0 $LLX=1.730000 $LLY=-0.199500 $URX=1.840000 $URY=0.200000 $lvl=1
ReF93 VSS! VSS!:20 0.540625 $metal1  $L=1.73 $W=0.400000 $SI_W=0.4 $TYPE=10 $DIR=0 $LLX=0.000000 $LLY=-0.199500 $URX=1.730000 $URY=0.200000 $lvl=1
RfF94 VSS!:1 VSS!:3 28.611765 $li  $L=0.38 $W=0.170000 $SI_W=0.17 $TYPE=10 $DIR=1 $LLX=3.245000 $LLY=0.970000 $URX=3.415000 $URY=1.350000 $lvl=2
RfF95 VSS!:3 VSS!:4 70.010727 $li  $L=0.96975 $W=0.170000 $SI_W=0.17 $TYPE=10 $DIR=1 $LLX=3.245000 $LLY=0.000000 $URX=3.415000 $URY=0.970000 $lvl=2
RfF96 VSS!:4 VSS!:5 44.031998 $li  $L=0.86 $W=0.250000 $SI_W=0.25 $TYPE=10 $DIR=0 $LLX=2.470000 $LLY=-0.124500 $URX=3.330000 $URY=0.125000 $lvl=2
RfF97 VSS!:5 VSS!:6 32.268803 $li  $L=0.63025 $W=0.250000 $SI_W=0.25 $TYPE=10 $DIR=0 $LLX=1.840000 $LLY=-0.124500 $URX=2.470000 $URY=0.125000 $lvl=2
RfF98 VSS!:6 VSS!:9 58.867199 $li  $L=1.14975 $W=0.250000 $SI_W=0.25 $TYPE=10 $DIR=0 $LLX=0.690000 $LLY=-0.124500 $URX=1.840000 $URY=0.125000 $lvl=2
RfF99 VSS!:9 VSS!:10 35.340801 $li  $L=0.69025 $W=0.250000 $SI_W=0.25 $TYPE=10 $DIR=0 $LLX=0.000000 $LLY=-0.124500 $URX=0.690000 $URY=0.125000 $lvl=2
RfF100 VSS!:4 VSS!:11 17.881599 $li  $L=0.34925 $W=0.250000 $SI_W=0.25 $TYPE=10 $DIR=0 $LLX=3.330000 $LLY=-0.124500 $URX=3.679000 $URY=0.125000 $lvl=2
RfF101 VSS!:5 VSS!:13 70.010727 $li  $L=0.96975 $W=0.170000 $SI_W=0.17 $TYPE=10 $DIR=1 $LLX=2.385000 $LLY=0.000000 $URX=2.555000 $URY=0.970000 $lvl=2
RfF102 VSS!:13 VSS!:14 28.611765 $li  $L=0.38 $W=0.170000 $SI_W=0.17 $TYPE=10 $DIR=1 $LLX=2.385000 $LLY=0.970000 $URX=2.555000 $URY=1.350000 $lvl=2
RfF103 VSS!:9 VSS!:16 57.210728 $li  $L=0.79975 $W=0.170000 $SI_W=0.17 $TYPE=10 $DIR=1 $LLX=0.605000 $LLY=0.000000 $URX=0.775000 $URY=0.800000 $lvl=2
RfF104 VSS!:16 VSS!:17 16.188236 $li  $L=0.215 $W=0.170000 $SI_W=0.17 $TYPE=10 $DIR=1 $LLX=0.605000 $LLY=0.800000 $URX=0.775000 $URY=1.015000 $lvl=2
RhF105 Mmn5@1:s VSS!:3 7.500000 $licon_diff  $A=0.0578 $VC=0 $SAVL=0 $SAVC=0 $SI_A=0.0578 $COVER_DIR=0 $LLX=0.000000 $LLY=0.000000 $URX=-0.057800 $URY=-2.000000 $lvl=5
RhF106 Mmn5:s VSS!:13 7.500000 $licon_diff  $A=0.0578 $VC=0 $SAVL=0 $SAVC=0 $SI_A=0.0578 $COVER_DIR=0 $LLX=0.000000 $LLY=0.000000 $URX=-0.057800 $URY=-2.000000 $lvl=5
RhF107 Mmn0:s VSS!:16 15.000000 $licon_diff  $L=0.17 $W=0.17 $A=0.0289 $VC=0 $SAVL=0 $SAVC=0 $SI_A=0.0289 $COVER_DIR=0 $LLX=0.000000 $LLY=0.000000 $URX=0.170000 $URY=0.170000 $lvl=5
Rh_3_F108 VSS!:7 VSS!:6 2.142857 $licon_diff  $A=0.2023 $VC=0 $SAVL=0 $SAVC=0 $SI_A=0.2023 $COVER_DIR=0 $LLX=0.000000 $LLY=0.000000 $URX=-0.202300 $URY=-7.000000 $lvl=5
RjF109 VSS!:6 VSS!:19 21.714285 $mcon  $A=0.2023 $VC=0 $SAVL=0 $SAVC=0 $SI_A=0.2023 $COVER_DIR=0 $LLX=0.000000 $LLY=0.000000 $URX=-0.202300 $URY=-7.000000 $lvl=6
RmwF110 Mmn4:b VSS! 0.001000 $FOX $W=1000000 $SI_W=1000000 $TYPE=1 $DIR=0
RmwF111 Mmn2:b VSS! 0.001000 $FOX $W=1000000 $SI_W=1000000 $TYPE=1 $DIR=0
RmwF112 Mmn5:b VSS! 0.001000 $FOX $W=1000000 $SI_W=1000000 $TYPE=1 $DIR=0
RmwF113 Mmn5@1:b VSS! 0.001000 $FOX $W=1000000 $SI_W=1000000 $TYPE=1 $DIR=0
RmwF114 Mmn0:b VSS! 0.001000 $FOX $W=1000000 $SI_W=1000000 $TYPE=1 $DIR=0
RmwF115 Mmn1:s Mmn0:s 0.001000 $diff $W=1000000 $SI_W=1000000 $TYPE=1 $DIR=0
RmwF116 Mmn1:b VSS! 0.001000 $FOX $W=1000000 $SI_W=1000000 $TYPE=1 $DIR=0
RmwF117 Mmn3:s Mmn5:s 0.001000 $diff $W=1000000 $SI_W=1000000 $TYPE=1 $DIR=0
RmwF118 Mmn3:b VSS! 0.001000 $FOX $W=1000000 $SI_W=1000000 $TYPE=1 $DIR=0
*
*|NET net148 2.66312e-16
*|I (Mmn2:s Mmn2 s X 0 1.2595 0.8025) // $llx=1.2595 $lly=0.8025 $urx=1.2595 $ury=0.8025 $lvl=4
*|I (Mmn1:d Mmn1 d X 0 0.9805 0.8025) // $llx=0.9805 $lly=0.8025 $urx=0.9805 $ury=0.8025 $lvl=4
*|S (net148 1.1200 1.0145) // $llx=1.1200 $lly=1.0145 $urx=1.1200 $ury=1.0145 $lvl=2
*|S (net148:3 1.1200 0.8000) // $llx=1.1200 $lly=0.8000 $urx=1.1200 $ury=0.8000 $lvl=2
*|S (net148:4 1.1200 0.5900) // $llx=1.1200 $lly=0.5900 $urx=1.1200 $ury=0.5900 $lvl=2
CI1 Mmn2:s VSS! 1.7039e-18 $lvl=4
CI2 net148:3 VSS! 8.38963e-18 $lvl=2
CI3 net148:4 VSS! 2.23954e-18 $lvl=2
CI4 net148 VSS! 2.83747e-18 $lvl=2
CI5 Mmn2:s VSS!:9 1.0843e-18 $lvl1=4 $lvl2=2
CI6 net148:4 VSS!:6 1.02003e-18 $lvl1=2 $lvl2=2
CI7 net148:3 VSS!:6 6.80464e-19 $lvl1=2 $lvl2=2
CI8 net148:3 VSS!:7 5.94154e-19 $lvl1=2 $lvl2=4
CI9 net148 VSS!:19 5.57496e-19 $lvl1=2 $lvl2=1
CI10 net148:3 Mmn0:s 5.41877e-19 $lvl1=2 $lvl2=4
CI11 net148:3 VSS!:16 2.29027e-17 $lvl1=2 $lvl2=2
CI12 net148:4 VSS!:16 5.50784e-18 $lvl1=2 $lvl2=2
CI13 net148:4 VSS!:19 2.80876e-18 $lvl1=2 $lvl2=1
CI14 net148:3 VSS!:9 6.27189e-18 $lvl1=2 $lvl2=2
CI15 net148:4 VSS!:9 6.12603e-18 $lvl1=2 $lvl2=2
CI16 net148:3 VSS!:19 2.73077e-18 $lvl1=2 $lvl2=1
CI17 net148 VSS!:16 4.48458e-18 $lvl1=2 $lvl2=2
RfI181 net148 net148:3 16.150589 $li  $L=0.2145 $W=0.170000 $SI_W=0.17 $TYPE=10 $DIR=1 $LLX=1.035000 $LLY=0.800000 $URX=1.205000 $URY=1.014500 $lvl=2
RfI182 net148:3 net148:4 15.811765 $li  $L=0.21 $W=0.170000 $SI_W=0.17 $TYPE=10 $DIR=1 $LLX=1.035000 $LLY=0.590000 $URX=1.205000 $URY=0.800000 $lvl=2
RhI183 Mmn2:s net148:3 15.000000 $licon_diff  $L=0.17 $W=0.17 $A=0.0289 $VC=0 $SAVL=0 $SAVC=0 $SI_A=0.0289 $COVER_DIR=0 $LLX=0.000000 $LLY=0.000000 $URX=0.170000 $URY=0.170000 $lvl=5
RmwI184 Mmn1:d Mmn2:s 0.001000 $diff $W=1000000 $SI_W=1000000 $TYPE=1 $DIR=0
*
*|NET net123 3.01806e-16
*|I (Mmp2:s Mmp2 s X 0 1.2595 3.3150) // $llx=1.2595 $lly=3.3150 $urx=1.2595 $ury=3.3150 $lvl=4
*|I (Mmp1:d Mmp1 d X 0 0.9805 3.3150) // $llx=0.9805 $lly=3.3150 $urx=0.9805 $ury=3.3150 $lvl=4
*|S (net123 1.1200 3.5495) // $llx=1.1200 $lly=3.5495 $urx=1.1200 $ury=3.5495 $lvl=2
*|S (net123:3 1.1200 3.2350) // $llx=1.1200 $lly=3.2350 $urx=1.1200 $ury=3.2350 $lvl=2
*|S (net123:4 1.1200 2.9250) // $llx=1.1200 $lly=2.9250 $urx=1.1200 $ury=2.9250 $lvl=2
CI18 Mmp2:s VSS! 9.58897e-19 $lvl=4
CI19 net123:3 VSS! 3.46149e-18 $lvl=2
CI20 net123:4 VSS! 3.8281e-18 $lvl=2
CI21 net123 VSS! 1.9822e-18 $lvl=2
RfI185 net123 net123:3 23.680000 $li  $L=0.3145 $W=0.170000 $SI_W=0.17 $TYPE=10 $DIR=1 $LLX=1.035000 $LLY=3.235000 $URX=1.205000 $URY=3.549500 $lvl=2
RfI186 net123:3 net123:4 23.341177 $li  $L=0.31 $W=0.170000 $SI_W=0.17 $TYPE=10 $DIR=1 $LLX=1.035000 $LLY=2.925000 $URX=1.205000 $URY=3.235000 $lvl=2
Rh_2_I187 Mmp2:s net123:3 15.000000 $licon_diff  $L=0.17 $W=0.17 $A=0.0289 $VC=0 $SAVL=0 $SAVC=0 $SI_A=0.0289 $COVER_DIR=0 $LLX=0.000000 $LLY=0.000000 $URX=0.170000 $URY=0.170000 $lvl=5
RmwI188 Mmp1:d Mmp2:s 0.001000 $diff $W=1000000 $SI_W=1000000 $TYPE=1 $DIR=0
*
*|NET VDD! 2.37774e-15
*|P (VDD! X 0 1.7000 4.1450) // $llx=1.7000 $lly=4.1450 $urx=1.7000 $ury=4.1450 $lvl=1
*|I (Mmp5:s Mmp5 s X 0 2.6095 3.1250) // $llx=2.6095 $lly=3.1250 $urx=2.6095 $ury=3.1250 $lvl=4
*|I (Mmp5:b Mmp5 b X 0 2.6850 3.1250) // $llx=2.6850 $lly=3.1250 $urx=2.6850 $ury=3.1250 $lvl=8
*|I (Mmp5@1:s Mmp5@1 s X 0 3.1905 3.1250) // $llx=3.1905 $lly=3.1250 $urx=3.1905 $ury=3.1250 $lvl=4
*|I (Mmp5@1:b Mmp5@1 b X 0 3.1150 3.1250) // $llx=3.1150 $lly=3.1250 $urx=3.1150 $ury=3.1250 $lvl=8
*|I (Mmp3:s Mmp3 s X 0 2.2705 3.3150) // $llx=2.2705 $lly=3.3150 $urx=2.2705 $ury=3.3150 $lvl=4
*|I (Mmp3:b Mmp3 b X 0 2.1950 3.3150) // $llx=2.1950 $lly=3.3150 $urx=2.1950 $ury=3.3150 $lvl=8
*|I (Mmp2:b Mmp2 b X 0 1.3350 3.3150) // $llx=1.3350 $lly=3.3150 $urx=1.3350 $ury=3.3150 $lvl=8
*|I (Mmp0:s Mmp0 s X 0 0.5505 3.3150) // $llx=0.5505 $lly=3.3150 $urx=0.5505 $ury=3.3150 $lvl=4
*|I (Mmp0:b Mmp0 b X 0 0.4750 3.3150) // $llx=0.4750 $lly=3.3150 $urx=0.4750 $ury=3.3150 $lvl=8
*|I (Mmp1:s Mmp1 s X 0 0.8295 3.3150) // $llx=0.8295 $lly=3.3150 $urx=0.8295 $ury=3.3150 $lvl=4
*|I (Mmp1:b Mmp1 b X 0 0.9050 3.3150) // $llx=0.9050 $lly=3.3150 $urx=0.9050 $ury=3.3150 $lvl=8
*|I (Mmp4:b Mmp4 b X 0 1.7650 3.3150) // $llx=1.7650 $lly=3.3150 $urx=1.7650 $ury=3.3150 $lvl=8
*|S (VDD!:1 0.6900 2.9250) // $llx=0.6900 $lly=2.9250 $urx=0.6900 $ury=2.9250 $lvl=2
*|S (VDD!:3 0.6900 3.3150) // $llx=0.6900 $lly=3.3150 $urx=0.6900 $ury=3.3150 $lvl=2
*|S (VDD!:4 0.6900 4.1400) // $llx=0.6900 $lly=4.1400 $urx=0.6900 $ury=4.1400 $lvl=2
*|S (VDD!:5 0.0000 4.1400) // $llx=0.0000 $lly=4.1400 $urx=0.0000 $ury=4.1400 $lvl=2
*|S (VDD!:6 1.8400 4.1400) // $llx=1.8400 $lly=4.1400 $urx=1.8400 $ury=4.1400 $lvl=2
*|S (VDD!:7 1.8400 4.1400) // $llx=1.8400 $lly=4.1400 $urx=1.8400 $ury=4.1400 $lvl=4
*|S (VDD!:9 2.4700 4.1400) // $llx=2.4700 $lly=4.1400 $urx=2.4700 $ury=4.1400 $lvl=2
*|S (VDD!:11 2.4700 3.1250) // $llx=2.4700 $lly=3.1250 $urx=2.4700 $ury=3.1250 $lvl=2
*|S (VDD!:12 2.4700 2.5450) // $llx=2.4700 $lly=2.5450 $urx=2.4700 $ury=2.5450 $lvl=2
*|S (VDD!:13 3.3300 4.1400) // $llx=3.3300 $lly=4.1400 $urx=3.3300 $ury=4.1400 $lvl=2
*|S (VDD!:15 3.3300 3.1250) // $llx=3.3300 $lly=3.1250 $urx=3.3300 $ury=3.1250 $lvl=2
*|S (VDD!:16 3.3300 2.5450) // $llx=3.3300 $lly=2.5450 $urx=3.3300 $ury=2.5450 $lvl=2
*|S (VDD!:17 3.6795 4.1400) // $llx=3.6795 $lly=4.1400 $urx=3.6795 $ury=4.1400 $lvl=2
*|S (VDD!:18 3.6800 4.1400) // $llx=3.6800 $lly=4.1400 $urx=3.6800 $ury=4.1400 $lvl=1
*|S (VDD!:19 1.8400 4.1400) // $llx=1.8400 $lly=4.1400 $urx=1.8400 $ury=4.1400 $lvl=1
*|S (VDD!:20 0.0000 4.1400) // $llx=0.0000 $lly=4.1400 $urx=0.0000 $ury=4.1400 $lvl=1
CE1 Mmp0:s VSS! 8.25537e-19 $lvl=4
CE2 Mmp5@1:s VSS! 1.9271e-18 $lvl=4
CE3 Mmp5:s VSS! 2.10146e-18 $lvl=4
CE4 VDD!:19 VSS! 9.94752e-18 $lvl=1
CE5 VDD!:18 VSS! 6.91874e-18 $lvl=1
CE6 VDD!:20 VSS! 6.67604e-18 $lvl=1
CE7 VDD!:11 VSS! 4.67906e-18 $lvl=2
CE8 VDD!:3 VSS! 4.36515e-18 $lvl=2
CE9 VDD!:16 VSS! 6.96779e-18 $lvl=2
CE10 VDD!:17 VSS! 1.95648e-18 $lvl=2
CE11 VDD!:13 VSS! 2.72715e-18 $lvl=2
CE12 VDD!:4 VSS! 3.15636e-18 $lvl=2
CE13 VDD!:5 VSS! 2.38329e-18 $lvl=2
CE14 VDD!:7 VSS! 2.24457e-18 $lvl=4
CE15 VDD!:6 VSS! 3.78604e-18 $lvl=2
CE16 VDD! VSS! 5.41089e-18 $lvl=1
CE17 VDD!:19 net115:3 1.4446e-18 $lvl1=1 $lvl2=2
CE18 VDD!:6 net115 1.19637e-18 $lvl1=2 $lvl2=2
CE19 VDD!:11 Mmp3:d 8.83115e-19 $lvl1=2 $lvl2=4
CE20 VDD! net115:3 5.60482e-19 $lvl1=1 $lvl2=2
CE21 VDD!:6 net115:3 3.33234e-19 $lvl1=2 $lvl2=2
CE22 VDD!:4 net115 5.81651e-18 $lvl1=2 $lvl2=2
CE23 VDD!:19 net115 2.4242e-18 $lvl1=1 $lvl2=2
CE24 VDD!:11 net115 7.2164e-18 $lvl1=2 $lvl2=2
CE25 VDD!:11 net115:3 2.42748e-17 $lvl1=2 $lvl2=2
CE26 VDD!:4 Mmp3:d 2.5221e-18 $lvl1=2 $lvl2=4
CE27 VDD!:4 net115:3 2.41061e-18 $lvl1=2 $lvl2=2
CE28 VDD!:11 net115:4 8.42703e-18 $lvl1=2 $lvl2=2
CE29 VDD!:19 net123:3 1.46289e-18 $lvl1=1 $lvl2=2
CE30 VDD!:6 net123 1.14962e-18 $lvl1=2 $lvl2=2
CE31 VDD!:3 Mmp2:s 8.53979e-19 $lvl1=2 $lvl2=4
CE32 VDD! net123:3 4.775e-19 $lvl1=1 $lvl2=2
CE33 VDD!:3 net123:4 5.40524e-18 $lvl1=2 $lvl2=2
CE34 VDD!:3 net123 9.17186e-18 $lvl1=2 $lvl2=2
CE35 VDD!:19 net123 2.44011e-18 $lvl1=1 $lvl2=2
CE36 VDD!:4 Mmp2:s 1.83247e-18 $lvl1=2 $lvl2=4
CE37 VDD!:4 net123:3 2.07932e-18 $lvl1=2 $lvl2=2
CE38 VDD!:4 net123 5.40512e-18 $lvl1=2 $lvl2=2
CE39 VDD!:3 net123:3 2.90673e-17 $lvl1=2 $lvl2=2
CE40 VDD! n0:17 8.0876e-18 $lvl1=1 $lvl2=3
CE41 VDD! n0:25 7.68852e-18 $lvl1=1 $lvl2=2
CE42 VDD!:4 n0:23 7.63173e-18 $lvl1=2 $lvl2=3
CE43 VDD!:11 n0:39 7.41277e-18 $lvl1=2 $lvl2=1
CE44 VDD!:19 n0:25 5.39525e-18 $lvl1=1 $lvl2=2
CE45 VDD!:13 n0:15 5.35244e-18 $lvl1=2 $lvl2=3
CE46 VDD! n0:31 4.91479e-18 $lvl1=1 $lvl2=2
CE47 VDD!:4 n0:39 4.33443e-18 $lvl1=2 $lvl2=1
CE48 VDD!:16 n0:17 2.66448e-18 $lvl1=2 $lvl2=3
CE49 VDD!:16 n0:31 2.39682e-18 $lvl1=2 $lvl2=2
CE50 VDD!:4 n0:15 2.0616e-18 $lvl1=2 $lvl2=3
CE51 VDD!:6 n0:25 1.99429e-18 $lvl1=2 $lvl2=2
CE52 VDD!:4 Mmp2:d 1.9889e-18 $lvl1=2 $lvl2=4
CE53 VDD!:6 n0:39 1.60474e-18 $lvl1=2 $lvl2=1
CE54 VDD!:3 n0:25 1.53654e-18 $lvl1=2 $lvl2=2
CE55 VDD!:11 n0:25 1.45437e-18 $lvl1=2 $lvl2=2
CE56 VDD!:16 n0:23 1.43067e-18 $lvl1=2 $lvl2=3
CE57 VDD!:19 n0:42 1.27692e-18 $lvl1=1 $lvl2=1
CE58 VDD!:3 n0:39 1.24784e-18 $lvl1=2 $lvl2=1
CE59 VDD!:11 n0:17 1.13615e-18 $lvl1=2 $lvl2=3
CE60 VDD!:20 n0:39 1.05852e-18 $lvl1=1 $lvl2=1
CE61 VDD!:11 n0:15 8.3504e-19 $lvl1=2 $lvl2=3
CE62 VDD!:19 n0:39 4.57583e-17 $lvl1=1 $lvl2=1
CE63 VDD!:4 n0:25 2.24043e-17 $lvl1=2 $lvl2=2
CE64 VDD!:11 n0:23 1.97608e-16 $lvl1=2 $lvl2=3
CE65 VDD!:16 n0:15 1.91786e-16 $lvl1=2 $lvl2=3
CE66 VDD! n0:42 1.59589e-17 $lvl1=1 $lvl2=1
CE67 VDD! n0:39 1.46539e-17 $lvl1=1 $lvl2=1
CE68 VDD!:3 S0b:29 7.96429e-18 $lvl1=2 $lvl2=1
CE69 VDD!:3 S0b:17 7.35231e-18 $lvl1=2 $lvl2=2
CE70 VDD!:11 S0b:28 6.81192e-18 $lvl1=2 $lvl2=2
CE71 VDD!:20 S0b:14 6.75879e-18 $lvl1=1 $lvl2=2
CE72 VDD!:19 S0b:14 4.89645e-18 $lvl1=1 $lvl2=2
CE73 VDD!:11 S0b:13 4.21848e-18 $lvl1=2 $lvl2=3
CE74 VDD!:7 S0b:14 3.18808e-18 $lvl1=4 $lvl2=2
CE75 VDD! S0b:24 2.83117e-18 $lvl1=1 $lvl2=2
CE76 VDD! S0b:10 2.25737e-18 $lvl1=1 $lvl2=3
CE77 VDD! S0b:17 2.2116e-18 $lvl1=1 $lvl2=2
CE78 VDD! S0b:22 2.1394e-18 $lvl1=1 $lvl2=2
CE79 VDD! S0b:19 2.10138e-18 $lvl1=1 $lvl2=2
CE80 VDD! S0b:28 1.94764e-18 $lvl1=1 $lvl2=2
CE81 VDD!:19 S0b:31 1.74856e-18 $lvl1=1 $lvl2=1
CE82 VDD!:11 S0b:11 1.70836e-18 $lvl1=2 $lvl2=3
CE83 VDD! S0b:25 1.66854e-18 $lvl1=1 $lvl2=2
CE84 VDD!:6 S0b:14 1.36765e-18 $lvl1=2 $lvl2=2
CE85 VDD! S0b:26 1.30458e-18 $lvl1=1 $lvl2=2
CE86 VDD!:5 S0b:29 1.28662e-18 $lvl1=2 $lvl2=1
CE87 VDD!:4 Mmp0:d 1.04418e-18 $lvl1=2 $lvl2=4
CE88 VDD!:20 S0b:31 1.03351e-18 $lvl1=1 $lvl2=1
CE89 Mmp0:s S0b:14 9.50817e-19 $lvl1=4 $lvl2=2
CE90 VDD!:4 S0b:29 9.13276e-19 $lvl1=2 $lvl2=1
CE91 Mmp5:s S0b:13 8.44689e-19 $lvl1=4 $lvl2=3
CE92 VDD!:5 Mmp0:d 6.80151e-19 $lvl1=2 $lvl2=4
CE93 VDD!:19 S0b:33 6.52214e-19 $lvl1=1 $lvl2=1
CE94 VDD!:19 S0b:29 9.54223e-18 $lvl1=1 $lvl2=1
CE95 VDD! S0b:29 3.23318e-17 $lvl1=1 $lvl2=1
CE96 VDD! S0b:33 2.13701e-17 $lvl1=1 $lvl2=1
CE97 VDD! S0b:23 1.0055e-17 $lvl1=1 $lvl2=2
CE98 VDD!:20 S0b:29 8.25858e-18 $lvl1=1 $lvl2=1
CE99 VDD! S0b:18 1.1178e-17 $lvl1=1 $lvl2=2
CE100 VDD!:5 S0b:14 1.08335e-17 $lvl1=2 $lvl2=2
CE101 VDD! S0b:14 3.84758e-17 $lvl1=1 $lvl2=2
CE102 VDD!:4 S0b:14 1.23896e-17 $lvl1=2 $lvl2=2
CE103 VDD! S0b:13 1.12803e-17 $lvl1=1 $lvl2=3
CE104 VDD!:4 S0b:11 8.54839e-18 $lvl1=2 $lvl2=3
CE105 VDD!:3 S0b:14 5.04487e-17 $lvl1=2 $lvl2=2
CE106 VDD! S0b:31 3.37475e-17 $lvl1=1 $lvl2=1
CE107 VDD!:19 VSS!:19 2.32166e-18 $lvl1=1 $lvl2=1
CE108 VDD! VSS!:16 2.10194e-18 $lvl1=1 $lvl2=2
CE109 VDD!:16 VSS!:1 1.69484e-18 $lvl1=2 $lvl2=2
CE110 VDD!:18 VSS!:19 7.00331e-19 $lvl1=1 $lvl2=1
CE111 VDD!:19 VSS!:18 6.11784e-19 $lvl1=1 $lvl2=1