*
*|DSPF 1.5
*
*|DATE "Wed Jan  8 22:39:47 2025"
*|VENDOR "Cadence Design Systems"
*|PROGRAM "Cadence Quantus Extraction"
*|VERSION "22.1.0-p089 Linux 64 bit - (Thu Jan 19 11:47:08 PST 2023)"
*|DESIGN CLKXOR2X1_HS
*|DIVIDER /
*|DELIMITER :
*|DeviceFingerDelim "@"
*|BUSBIT []
*|GLOBAL_TEMPERATURE 25
*|OPERATING_TEMPERATURE 25

** *VIA_COVERAGE_CODES
** *index FF FS FP FU SF SS SP SU PF PS PP PU UF US UP UU X_by_Y
** * "FF" stands for Full landing and Full coverage
** *0 0 0 0 0 0 0 0 0 0 0 0 0 0 0 0 0
** *1 0 0 0 0 0 0 0 0 0 0 0 0 0 0 0 1 1x1
** *2 0 0 0 0 0 0 0 0 0 0 0 0 0 0 1 0 1x1
** *3 0 0 0 0 0 0 0 0 0 0 0 0 0 1 0 0 1x1
** *4 0 0 0 0 0 0 0 0 0 0 0 0 1 0 0 0 1x1
** *5 0 0 0 0 0 0 0 0 0 0 0 1 0 0 0 0 1x1
** *6 0 0 0 0 0 0 0 0 0 0 1 0 0 0 0 0 1x1
** *7 0 0 0 0 0 0 0 0 0 1 0 0 0 0 0 0 1x1
** *8 0 0 0 0 0 0 0 0 1 0 0 0 0 0 0 0 1x1
** *9 0 0 0 0 0 0 0 1 0 0 0 0 0 0 0 0 1x1
** *10 0 0 0 0 0 0 1 0 0 0 0 0 0 0 0 0 1x1
** *11 0 0 0 0 0 1 0 0 0 0 0 0 0 0 0 0 1x1
** *12 0 0 0 0 1 0 0 0 0 0 0 0 0 0 0 0 1x1
** *13 0 0 0 1 0 0 0 0 0 0 0 0 0 0 0 0 1x1
** *14 0 0 1 0 0 0 0 0 0 0 0 0 0 0 0 0 1x1
** *15 0 1 0 0 0 0 0 0 0 0 0 0 0 0 0 0 1x1
** *16 1 0 0 0 0 0 0 0 0 0 0 0 0 0 0 0 1x1

** *RESISTOR_TYPES
** *1 SHORTING_ELEMENT
** *2 PRES_NG
** *3 PRES_PG
** *4 PRES_NF
** *5 PRES_PF
** *6 TCN_NDIFF
** *7 TCN_PDIFF
** *8 TCN_NFIELD
** *9 TCN_PFIELD
** *10 QUALITY_EXTRACTED
** *11 GCNLAND
** *12 TCNLAND
** *13 DUMMY
** *14 RSD
** *15 BRIDGE

** *RESISTOR_CURRENT_DIRECTION
** *0 HORIZONTAL
** *1 VERTICAL
** *2 45 DEGREE

** QRC_TECH_DIR /vols/wfo_devel/projects/reference_SKY130/tech/sky130_release_0.0.4/quantus/extraction/typical 
** HIERARCHICAL_SPLIT_PINS_DELIMITER '%'
** caps2d version: 10
*
.SUBCKT  CLKXOR2X1_HS A B Y
*
*Net Section
*
*|GROUND_NET VSS!
*
*LAYER_MAP
*0 none
*1 metal1
*2 li
*3 poly
*4 diff
*5 licon_diff
*6 mcon
*7 licon
*8 FOX

*|NET n0 2.89597e-15
*|I (Mmp3:d Mmp3 d X 0 1.6895 3.3550) // $llx=1.6895 $lly=3.3550 $urx=1.6895 $ury=3.3550 $lvl=4
*|I (Mmp5:g Mmp5 g X 0 2.6850 3.0150) // $llx=2.6850 $lly=3.0150 $urx=2.6850 $ury=3.0150 $lvl=3
*|I (Mmp4:d Mmp4 d X 0 1.4105 3.3550) // $llx=1.4105 $lly=3.3550 $urx=1.4105 $ury=3.3550 $lvl=4
*|I (Mmn3:d Mmn3 d X 0 1.6895 0.6075) // $llx=1.6895 $lly=0.6075 $urx=1.6895 $ury=0.6075 $lvl=4
*|I (Mmn5:g Mmn5 g X 0 2.6850 0.7750) // $llx=2.6850 $lly=0.7750 $urx=2.6850 $ury=0.7750 $lvl=3
*|I (Mmn4:d Mmn4 d X 0 1.4105 0.6075) // $llx=1.4105 $lly=0.6075 $urx=1.4105 $ury=0.6075 $lvl=4
*|S (n0 2.6850 0.7750) // $llx=2.6850 $lly=0.7750 $urx=2.6850 $ury=0.7750 $lvl=3
*|S (n0:8 2.6850 3.8950) // $llx=2.6850 $lly=3.8950 $urx=2.6850 $ury=3.8950 $lvl=3
*|S (n0:9 2.6850 1.4350) // $llx=2.6850 $lly=1.4350 $urx=2.6850 $ury=1.4350 $lvl=3
*|S (n0:10 2.6850 1.2700) // $llx=2.6850 $lly=1.2700 $urx=2.6850 $ury=1.2700 $lvl=3
*|S (n0:11 2.6850 0.2450) // $llx=2.6850 $lly=0.2450 $urx=2.6850 $ury=0.2450 $lvl=3
*|S (n0:12 1.5500 3.7450) // $llx=1.5500 $lly=3.7450 $urx=1.5500 $ury=3.7450 $lvl=2
*|S (n0:13 1.5500 3.5450) // $llx=1.5500 $lly=3.5450 $urx=1.5500 $ury=3.5450 $lvl=2
*|S (n0:15 1.5500 3.3550) // $llx=1.5500 $lly=3.3550 $urx=1.5500 $ury=3.3550 $lvl=2
*|S (n0:16 1.5500 2.9650) // $llx=1.5500 $lly=2.9650 $urx=1.5500 $ury=2.9650 $lvl=2
*|S (n0:17 1.5500 0.8200) // $llx=1.5500 $lly=0.8200 $urx=1.5500 $ury=0.8200 $lvl=2
*|S (n0:19 1.5500 0.6050) // $llx=1.5500 $lly=0.6050 $urx=1.5500 $ury=0.6050 $lvl=2
*|S (n0:20 1.5500 0.4250) // $llx=1.5500 $lly=0.4250 $urx=1.5500 $ury=0.4250 $lvl=2
*|S (n0:21 2.8500 1.4350) // $llx=2.8500 $lly=1.4350 $urx=2.8500 $ury=1.4350 $lvl=2
*|S (n0:22 2.6850 1.4350) // $llx=2.6850 $lly=1.4350 $urx=2.6850 $ury=1.4350 $lvl=2
*|S (n0:23 2.4400 1.4350) // $llx=2.4400 $lly=1.4350 $urx=2.4400 $ury=1.4350 $lvl=2
*|S (n0:24 1.4050 0.4250) // $llx=1.4050 $lly=0.4250 $urx=1.4050 $ury=0.4250 $lvl=1
*|S (n0:25 1.5500 0.4250) // $llx=1.5500 $lly=0.4250 $urx=1.5500 $ury=0.4250 $lvl=1
*|S (n0:26 2.4400 0.4250) // $llx=2.4400 $lly=0.4250 $urx=2.4400 $ury=0.4250 $lvl=1
*|S (n0:27 2.4400 1.4350) // $llx=2.4400 $lly=1.4350 $urx=2.4400 $ury=1.4350 $lvl=1
*|S (n0:28 2.4400 3.5450) // $llx=2.4400 $lly=3.5450 $urx=2.4400 $ury=3.5450 $lvl=1
*|S (n0:29 1.5500 3.5450) // $llx=1.5500 $lly=3.5450 $urx=1.5500 $ury=3.5450 $lvl=1
*|S (n0:30 1.4050 3.5450) // $llx=1.4050 $lly=3.5450 $urx=1.4050 $ury=3.5450 $lvl=1
CH1 Mmn3:d VSS! 2.84569e-18 $lvl=4
CH2 Mmp3:d VSS! 1.32734e-18 $lvl=4
CH3 n0:27 VSS! 9.10453e-18 $lvl=1
CH4 n0:24 VSS! 4.1723e-18 $lvl=1
CH5 n0:30 VSS! 5.79151e-18 $lvl=1
CH6 n0:28 VSS! 7.13763e-18 $lvl=1
CH7 n0:26 VSS! 4.43259e-18 $lvl=1
CH8 n0:8 VSS! 2.19319e-18 $lvl=3
CH9 n0:21 VSS! 4.15454e-18 $lvl=2
CH10 n0:17 VSS! 6.43754e-18 $lvl=2
CH11 n0:12 VSS! 4.18064e-18 $lvl=2
CH12 n0:16 VSS! 4.11916e-18 $lvl=2
CH13 n0:20 VSS! 1.45844e-18 $lvl=2
CH14 n0:13 VSS! 1.00471e-18 $lvl=2
CH15 n0:23 VSS! 4.73483e-18 $lvl=2
CH16 n0:9 VSS! 1.89331e-17 $lvl=3
CH17 n0 VSS! 2.29361e-18 $lvl=3
CH18 n0:12 Mmp3:s 1.13402e-18 $lvl1=2 $lvl2=4
CH19 n0:24 net139:4 1.28e-18 $lvl1=1 $lvl2=2
CH20 n0:17 net139:4 1.19188e-18 $lvl1=2 $lvl2=2
CH21 n0:26 net139 1.11257e-18 $lvl1=1 $lvl2=2
CH22 n0:27 net139 5.93402e-19 $lvl1=1 $lvl2=2
CH23 n0:23 net139 4.33513e-19 $lvl1=2 $lvl2=2
CH24 n0:27 net139:3 4.23818e-19 $lvl1=1 $lvl2=2
CH25 n0:23 net139:3 3.49263e-19 $lvl1=2 $lvl2=2
CH26 n0:20 net139 3.1426e-19 $lvl1=2 $lvl2=2
CH27 n0:17 Mmn3:s 2.81486e-19 $lvl1=2 $lvl2=4
CH28 n0:30 net130 2.35655e-18 $lvl1=1 $lvl2=2
CH29 n0:28 net130 3.51984e-18 $lvl1=1 $lvl2=2
CH30 n0:16 net130:3 3.75166e-18 $lvl1=2 $lvl2=2
CH31 n0:17 net139:3 1.63357e-17 $lvl1=2 $lvl2=2
CH32 n0:12 net130:3 2.37247e-17 $lvl1=2 $lvl2=2
CH33 n0:17 net139 3.3519e-18 $lvl1=2 $lvl2=2
CH34 n0:26 net139:3 4.57943e-18 $lvl1=1 $lvl2=2
CH35 n0:20 net139:4 3.67613e-18 $lvl1=2 $lvl2=2
CH36 n0:13 net130 2.07064e-18 $lvl1=2 $lvl2=2
CH37 n0:26 net139:4 2.11087e-18 $lvl1=1 $lvl2=2
CH38 n0:20 net139:3 5.43534e-18 $lvl1=2 $lvl2=2
CH39 n0:13 net130:3 1.769e-18 $lvl1=2 $lvl2=2
CH40 n0:28 net130:3 5.79975e-18 $lvl1=1 $lvl2=2
CH41 n0:16 net130:4 3.65562e-18 $lvl1=2 $lvl2=2
CH42 n0:28 net130:4 1.88705e-18 $lvl1=1 $lvl2=2
CH43 n0:30 net130:3 1.83071e-18 $lvl1=1 $lvl2=2
CH44 n0:24 net139:3 2.36893e-18 $lvl1=1 $lvl2=2
CH45 n0:12 net130 7.87242e-18 $lvl1=2 $lvl2=2
CH46 n0:12 net130:4 2.76216e-18 $lvl1=2 $lvl2=2
CH47 n0 VSS!:8 8.25363e-18 $lvl1=3 $lvl2=2
CH48 n0:20 VSS!:5 7.5708e-18 $lvl1=2 $lvl2=2
CH49 n0:17 VSS!:8 7.23489e-18 $lvl1=2 $lvl2=2
CH50 n0:26 VSS!:8 6.28283e-18 $lvl1=1 $lvl2=2
CH51 n0:26 VSS!:5 4.84714e-18 $lvl1=1 $lvl2=2
CH52 n0:27 VSS!:14 4.8159e-18 $lvl1=1 $lvl2=1
CH53 n0:21 VSS!:3 3.39333e-18 $lvl1=2 $lvl2=2
CH54 n0:24 VSS!:5 2.34196e-18 $lvl1=1 $lvl2=2
CH55 n0:9 Mmn5:s 2.14844e-18 $lvl1=3 $lvl2=4
CH56 n0:24 VSS!:8 1.79396e-18 $lvl1=1 $lvl2=2
CH57 n0 VSS!:10 1.30946e-18 $lvl1=3 $lvl2=2
CH58 n0:23 VSS!:3 1.73799e-17 $lvl1=2 $lvl2=2
CH59 n0 VSS!:3 1.30145e-16 $lvl1=3 $lvl2=2
CH60 n0:24 VSS!:14 8.15097e-17 $lvl1=1 $lvl2=1
CH61 n0:27 VSS!:3 9.23931e-18 $lvl1=1 $lvl2=2
CH62 n0:20 VSS!:14 9.4916e-18 $lvl1=2 $lvl2=1
CH63 n0:20 VSS!:8 2.40649e-17 $lvl1=2 $lvl2=2
CH64 n0:26 VSS!:14 9.07498e-17 $lvl1=1 $lvl2=1
CH65 n0:26 VSS!:3 1.73569e-17 $lvl1=1 $lvl2=2
CH66 n0:9 VSS!:3 9.45643e-18 $lvl1=3 $lvl2=2
ReH154 n0:24 n0:25 0.106618 $metal1  $L=0.145 $W=0.170000 $SI_W=0.17 $TYPE=10 $DIR=0 $LLX=1.405000 $LLY=0.340000 $URX=1.550000 $URY=0.510000 $lvl=1
ReH155 n0:25 n0:26 0.654596 $metal1  $L=0.89025 $W=0.170000 $SI_W=0.17 $TYPE=10 $DIR=0 $LLX=1.550000 $LLY=0.340000 $URX=2.440000 $URY=0.510000 $lvl=1
ReH156 n0:26 n0:27 0.485457 $metal1  $L=1.00975 $W=0.260000 $SI_W=0.26 $TYPE=10 $DIR=1 $LLX=2.310000 $LLY=0.425000 $URX=2.570000 $URY=1.435000 $lvl=1
ReH157 n0:27 n0:28 1.014543 $metal1  $L=2.11025 $W=0.260000 $SI_W=0.26 $TYPE=10 $DIR=1 $LLX=2.310000 $LLY=1.435000 $URX=2.570000 $URY=3.545000 $lvl=1
ReH158 n0:28 n0:29 0.654596 $metal1  $L=0.89025 $W=0.170000 $SI_W=0.17 $TYPE=10 $DIR=0 $LLX=1.550000 $LLY=3.460000 $URX=2.440000 $URY=3.630000 $lvl=1
ReH159 n0:29 n0:30 0.106618 $metal1  $L=0.145 $W=0.170000 $SI_W=0.17 $TYPE=10 $DIR=0 $LLX=1.405000 $LLY=3.460000 $URX=1.550000 $URY=3.630000 $lvl=1
RfH160 n0:12 n0:13 15.058823 $li  $L=0.2 $W=0.170000 $SI_W=0.17 $TYPE=10 $DIR=1 $LLX=1.465000 $LLY=3.545000 $URX=1.635000 $URY=3.745000 $lvl=2
RfH161 n0:13 n0:15 14.305882 $li  $L=0.19 $W=0.170000 $SI_W=0.17 $TYPE=10 $DIR=1 $LLX=1.465000 $LLY=3.355000 $URX=1.635000 $URY=3.545000 $lvl=2
RfH162 n0:15 n0:16 29.364706 $li  $L=0.39 $W=0.170000 $SI_W=0.17 $TYPE=10 $DIR=1 $LLX=1.465000 $LLY=2.965000 $URX=1.635000 $URY=3.355000 $lvl=2
RfH163 n0:17 n0:19 16.188236 $li  $L=0.215 $W=0.170000 $SI_W=0.17 $TYPE=10 $DIR=1 $LLX=1.465000 $LLY=0.605000 $URX=1.635000 $URY=0.820000 $lvl=2
RfH164 n0:19 n0:20 13.552941 $li  $L=0.18 $W=0.170000 $SI_W=0.17 $TYPE=10 $DIR=1 $LLX=1.465000 $LLY=0.425000 $URX=1.635000 $URY=0.605000 $lvl=2
RfH165 n0:21 n0:22 12.423529 $li  $L=0.165 $W=0.170000 $SI_W=0.17 $TYPE=10 $DIR=0 $LLX=2.685000 $LLY=1.350000 $URX=2.850000 $URY=1.520000 $lvl=2
RfH166 n0:22 n0:23 18.447060 $li  $L=0.245 $W=0.170000 $SI_W=0.17 $TYPE=10 $DIR=0 $LLX=2.440000 $LLY=1.350000 $URX=2.685000 $URY=1.520000 $lvl=2
RgH167 n0:8 Mmp5:g 282.773346 $poly  $L=0.88 $W=0.150000 $SI_W=0.15 $TYPE=10 $DIR=1 $LLX=2.610000 $LLY=3.015000 $URX=2.760000 $URY=3.895000 $lvl=3
RgH168 Mmp5:g n0:9 488.865753 $poly  $L=1.58 $W=0.150000 $SI_W=0.15 $TYPE=10 $DIR=1 $LLX=2.610000 $LLY=1.435000 $URX=2.760000 $URY=3.015000 $lvl=3
RgH169 n0:9 n0:10 34.134449 $poly  $L=0.1645 $W=0.270000 $SI_W=0.27 $TYPE=10 $DIR=1 $LLX=2.550000 $LLY=1.270500 $URX=2.820000 $URY=1.435000 $lvl=3
RgH170 n0:10 n0 159.104630 $poly  $L=0.495 $W=0.150000 $SI_W=0.15 $TYPE=10 $DIR=1 $LLX=2.610000 $LLY=0.775000 $URX=2.760000 $URY=1.270000 $lvl=3
RgH171 n0 n0:11 170.306671 $poly  $L=0.53 $W=0.150000 $SI_W=0.15 $TYPE=10 $DIR=1 $LLX=2.610000 $LLY=0.245000 $URX=2.760000 $URY=0.775000 $lvl=3
RhH172 Mmn3:d n0:19 15.000000 $licon_diff  $L=0.17 $W=0.17 $A=0.0289 $VC=0 $SAVL=0 $SAVC=0 $SI_A=0.0289 $COVER_DIR=0 $LLX=0.000000 $LLY=0.000000 $URX=0.170000 $URY=0.170000 $lvl=5
Rh_2_H173 Mmp3:d n0:15 7.500000 $licon_diff  $A=0.0578 $VC=0 $SAVL=0 $SAVC=0 $SI_A=0.0578 $COVER_DIR=0 $LLX=0.000000 $LLY=0.000000 $URX=-0.057800 $URY=-2.000000 $lvl=5
RjH174 n0:20 n0:25 152.000000 $mcon  $L=0.17 $W=0.17 $A=0.0289 $VC=0 $SAVL=0 $SAVC=0 $SI_A=0.0289 $COVER_DIR=0 $LLX=0.000000 $LLY=0.000000 $URX=0.170000 $URY=0.170000 $lvl=6
RjH175 n0:23 n0:27 152.000000 $mcon  $L=0.17 $W=0.17 $A=0.0289 $VC=0 $SAVL=0 $SAVC=0 $SI_A=0.0289 $COVER_DIR=0 $LLX=0.000000 $LLY=0.000000 $URX=0.170000 $URY=0.170000 $lvl=6
RjH176 n0:13 n0:29 152.000000 $mcon  $L=0.17 $W=0.17 $A=0.0289 $VC=0 $SAVL=0 $SAVC=0 $SI_A=0.0289 $COVER_DIR=0 $LLX=0.000000 $LLY=0.000000 $URX=0.170000 $URY=0.170000 $lvl=6
RiH177 n0:9 n0:22 15.000000 $licon  $L=0.17 $W=0.17 $A=0.0289 $VC=0 $SAVL=0 $SAVC=0 $SI_A=0.0289 $COVER_DIR=0 $LLX=0.000000 $LLY=0.000000 $URX=0.170000 $URY=0.170000 $lvl=7
RmwH178 Mmp4:d Mmp3:d 0.001000 $diff $W=1000000 $SI_W=1000000 $TYPE=1 $DIR=0
RmwH179 Mmn5:g n0 0.001000 $poly $W=1000000 $SI_W=1000000 $TYPE=1 $DIR=0
RmwH180 Mmn4:d Mmn3:d 0.001000 $diff $W=1000000 $SI_W=1000000 $TYPE=1 $DIR=0
*
*|NET A 9.13612e-16
*|P (A X 0 0.9350 1.8800) // $llx=0.9350 $lly=1.8800 $urx=0.9350 $ury=1.8800 $lvl=1
*|I (Mmp0:g Mmp0 g X 0 0.9050 3.3550) // $llx=0.9050 $lly=3.3550 $urx=0.9050 $ury=3.3550 $lvl=3
*|I (Mmn0:g Mmn0 g X 0 0.9050 0.6075) // $llx=0.9050 $lly=0.6075 $urx=0.9050 $ury=0.6075 $lvl=3
*|S (A:8 0.9050 3.8950) // $llx=0.9050 $lly=3.8950 $urx=0.9050 $ury=3.8950 $lvl=3
*|S (A:9 0.9050 1.9000) // $llx=0.9050 $lly=1.9000 $urx=0.9050 $ury=1.9000 $lvl=3
*|S (A:10 0.9050 1.7350) // $llx=0.9050 $lly=1.7350 $urx=0.9050 $ury=1.7350 $lvl=3
*|S (A:11 0.9050 0.2450) // $llx=0.9050 $lly=0.2450 $urx=0.9050 $ury=0.2450 $lvl=3
*|S (A:12 1.2150 1.9000) // $llx=1.2150 $lly=1.9000 $urx=1.2150 $ury=1.9000 $lvl=2
*|S (A:13 0.9200 1.9000) // $llx=0.9200 $lly=1.9000 $urx=0.9200 $ury=1.9000 $lvl=2
*|S (A:14 0.9050 1.9000) // $llx=0.9050 $lly=1.9000 $urx=0.9050 $ury=1.9000 $lvl=2
*|S (A:15 0.9200 1.9000) // $llx=0.9200 $lly=1.9000 $urx=0.9200 $ury=1.9000 $lvl=1
CA1 Mmn0:g VSS! 2.24406e-18 $lvl=3
CA2 A:15 VSS! 1.14733e-17 $lvl=1
CA3 A:8 VSS! 1.85596e-18 $lvl=3
CA4 A:12 VSS! 7.39266e-18 $lvl=2
CA5 A:13 VSS! 1.99158e-18 $lvl=2
CA6 A:9 VSS! 1.83389e-17 $lvl=3
CA7 A:15 n1:27 3.30744e-18 $lvl1=1 $lvl2=1
CA8 A:15 n1:28 2.33985e-18 $lvl1=1 $lvl2=1
CA9 A:15 n1:26 2.27934e-18 $lvl1=1 $lvl2=1
CA10 A:15 n1:20 1.76772e-18 $lvl1=1 $lvl2=2
CA11 A:15 n1:15 1.34904e-18 $lvl1=1 $lvl2=2
CA12 A:15 n1:16 1.10331e-18 $lvl1=1 $lvl2=2
CA13 A:8 n1:16 1.06122e-18 $lvl1=3 $lvl2=2
CA14 Mmn0:g n1:17 6.78632e-17 $lvl1=3 $lvl2=2
CA15 A:15 n1:24 1.04585e-17 $lvl1=1 $lvl2=1
CA16 A:15 n1:30 7.37139e-18 $lvl1=1 $lvl2=1
CA17 A:8 n1:12 1.28432e-16 $lvl1=3 $lvl2=2
CA18 A:9 n2:10 3.531e-18 $lvl1=3 $lvl2=3
CA19 A:13 n2:23 3.40491e-18 $lvl1=2 $lvl2=2
CA20 A:13 n2:25 3.19301e-18 $lvl1=2 $lvl2=2
CA21 A:12 n2:10 2.90253e-18 $lvl1=2 $lvl2=3
CA22 A:15 n2:24 2.67417e-18 $lvl1=1 $lvl2=2
CA23 A:12 n2:31 2.08752e-18 $lvl1=2 $lvl2=1
CA24 A:13 n2:31 1.27286e-18 $lvl1=2 $lvl2=1
CA25 A:12 n2:24 9.98684e-19 $lvl1=2 $lvl2=2
CA26 A:8 n2:13 6.1083e-19 $lvl1=3 $lvl2=2
CA27 A:9 n2:31 5.32662e-19 $lvl1=3 $lvl2=1
CA28 A:13 n2:24 4.62466e-19 $lvl1=2 $lvl2=2
CA29 A:15 n2:13 4.53632e-19 $lvl1=1 $lvl2=2
CA30 A:15 n2:17 4.39918e-19 $lvl1=1 $lvl2=2
CA31 A:12 n2:28 4.02275e-19 $lvl1=2 $lvl2=1
CA32 Mmn0:g n2:18 3.82503e-19 $lvl1=3 $lvl2=2
CA33 A:12 n2:23 1.86076e-17 $lvl1=2 $lvl2=2
CA34 A:9 n2:25 4.96772e-18 $lvl1=3 $lvl2=2
CA35 A:12 n2:25 2.77861e-17 $lvl1=2 $lvl2=2
CA36 A:15 n2:33 1.21546e-17 $lvl1=1 $lvl2=1
CA37 A:15 n2:31 3.42928e-17 $lvl1=1 $lvl2=1
CA38 A:15 n2:30 6.38825e-18 $lvl1=1 $lvl2=1
CA39 A:15 n2:25 8.5744e-18 $lvl1=1 $lvl2=2
CA40 A:15 n2:28 2.19975e-17 $lvl1=1 $lvl2=1
CA41 A:15 n2:23 1.04648e-17 $lvl1=1 $lvl2=2
CA42 A:9 n2:23 6.83075e-18 $lvl1=3 $lvl2=2
CA43 A:15 VSS!:14 3.84098e-18 $lvl1=1 $lvl2=1
CA44 Mmn0:g VSS!:8 8.54063e-18 $lvl1=3 $lvl2=2
CA45 Mmn0:g VSS!:12 6.71838e-17 $lvl1=3 $lvl2=2
CA46 A:15 VDD!:3 2.30503e-18 $lvl1=1 $lvl2=2
CA47 A:15 VDD!:15 2.17575e-18 $lvl1=1 $lvl2=1
CA48 A:8 VDD!:4 8.84247e-18 $lvl1=3 $lvl2=2
CA49 A:15 VDD! 1.36418e-17 $lvl1=1 $lvl2=1
CA50 A:9 VDD! 7.31104e-18 $lvl1=3 $lvl2=1
CA51 A:8 VDD!:3 1.29912e-16 $lvl1=3 $lvl2=2
CA52 A:15 B:28 4.16222e-18 $lvl1=1 $lvl2=2
CA53 A:12 B:23 3.39005e-18 $lvl1=2 $lvl2=3
CA54 A:9 B:31 3.01977e-18 $lvl1=3 $lvl2=2
CA55 A:13 B:38 2.80288e-18 $lvl1=2 $lvl2=1
CA56 A:9 B:27 2.68886e-18 $lvl1=3 $lvl2=2
CA57 Mmn0:g B:18 2.65549e-18 $lvl1=3 $lvl2=3
CA58 A:15 B:33 2.43703e-18 $lvl1=1 $lvl2=2
CA59 A:12 B:16 2.34702e-18 $lvl1=2 $lvl2=3
CA60 A:12 B:28 2.10882e-18 $lvl1=2 $lvl2=2
CA61 Mmn0:g B:35 2.09595e-18 $lvl1=3 $lvl2=2
CA62 A:13 B:31 1.75551e-18 $lvl1=2 $lvl2=2
CA63 A:9 B:18 1.57152e-18 $lvl1=3 $lvl2=3
CA64 A:13 B:27 1.4805e-18 $lvl1=2 $lvl2=2
CA65 A:8 B:16 1.25011e-18 $lvl1=3 $lvl2=3
CA66 A:8 B:23 1.17951e-18 $lvl1=3 $lvl2=3
CA67 Mmn0:g B:33 9.20323e-19 $lvl1=3 $lvl2=2
CA68 A:15 B:16 9.02677e-19 $lvl1=1 $lvl2=3
CA69 A:9 B:35 8.77634e-19 $lvl1=3 $lvl2=2
CA70 A:8 B:31 7.37916e-19 $lvl1=3 $lvl2=2
CA71 A:8 B:27 5.83496e-19 $lvl1=3 $lvl2=2
CA72 A:9 B:33 5.79646e-19 $lvl1=3 $lvl2=2
CA73 A:15 B:23 5.33585e-19 $lvl1=1 $lvl2=3
CA74 A:13 B:28 4.71125e-19 $lvl1=2 $lvl2=2
CA75 A:15 B:38 9.52766e-17 $lvl1=1 $lvl2=1
CA76 A:12 B:38 5.49114e-18 $lvl1=2 $lvl2=1
CA77 A:15 B:27 8.58315e-18 $lvl1=1 $lvl2=2
CA78 A:15 B 2.78788e-17 $lvl1=1 $lvl2=1
CA79 A:15 B:31 1.177e-17 $lvl1=1 $lvl2=2
CA80 A:15 B:35 8.62167e-18 $lvl1=1 $lvl2=2
CA81 A:12 B:31 7.3309e-18 $lvl1=2 $lvl2=2
CA82 A:9 B:16 4.8514e-18 $lvl1=3 $lvl2=3
CA83 A:12 B:27 8.78053e-18 $lvl1=2 $lvl2=2
CA84 A:9 B:23 4.68013e-18 $lvl1=3 $lvl2=3
ReA1 A:15 A 0.009615 $metal1  $L=0.02 $W=0.260000 $SI_W=0.26 $TYPE=10 $DIR=1 $LLX=0.790000 $LLY=1.880000 $URX=1.050000 $URY=1.900000 $lvl=1
RfA2 A:12 A:13 22.211765 $li  $L=0.295 $W=0.170000 $SI_W=0.17 $TYPE=10 $DIR=0 $LLX=0.920000 $LLY=1.815000 $URX=1.215000 $URY=1.985000 $lvl=2
RfA3 A:13 A:14 1.129412 $li  $L=0.015 $W=1000000 $SI_W=1000000 $TYPE=1,10 $DIR=0 $LLX=0.905000 $LLY=1.815000 $URX=0.920000 $URY=1.985000 $lvl=2
RgA4 A:8 Mmp0:g 173.519989 $poly  $L=0.54 $W=0.150000 $SI_W=0.15 $TYPE=10 $DIR=1 $LLX=0.830000 $LLY=3.355000 $URX=0.980000 $URY=3.895000 $lvl=3
RgA5 Mmp0:g A:9 448.699097 $poly  $L=1.455 $W=0.150000 $SI_W=0.15 $TYPE=10 $DIR=1 $LLX=0.830000 $LLY=1.900000 $URX=0.980000 $URY=3.355000 $lvl=3
RgA6 A:9 A:10 34.134449 $poly  $L=0.1645 $W=0.270000 $SI_W=0.27 $TYPE=10 $DIR=1 $LLX=0.770000 $LLY=1.735500 $URX=1.040000 $URY=1.900000 $lvl=3
RgA7 A:10 Mmn0:g 362.347961 $poly  $L=1.1275 $W=0.150000 $SI_W=0.15 $TYPE=10 $DIR=1 $LLX=0.830000 $LLY=0.607500 $URX=0.980000 $URY=1.735000 $lvl=3
RgA8 Mmn0:g A:11 116.483322 $poly  $L=0.3625 $W=0.150000 $SI_W=0.15 $TYPE=10 $DIR=1 $LLX=0.830000 $LLY=0.245000 $URX=0.980000 $URY=0.607500 $lvl=3
RjA9 A:13 A:15 152.000000 $mcon  $L=0.17 $W=0.17 $A=0.0289 $VC=0 $SAVL=0 $SAVC=0 $SI_A=0.0289 $COVER_DIR=0 $LLX=0.000000 $LLY=0.000000 $URX=0.170000 $URY=0.170000 $lvl=6
RiA10 A:9 A:14 15.000000 $licon  $L=0.17 $W=0.17 $A=0.0289 $VC=0 $SAVL=0 $SAVC=0 $SI_A=0.0289 $COVER_DIR=0 $LLX=0.000000 $LLY=0.000000 $URX=0.170000 $URY=0.170000 $lvl=7
*
*|NET Y 1.34738e-15
*|P (Y X 0 3.2350 1.5750) // $llx=3.2350 $lly=1.5750 $urx=3.2350 $ury=1.5750 $lvl=1
*|I (Mmp5:d Mmp5 d X 0 2.7605 3.0150) // $llx=2.7605 $lly=3.0150 $urx=2.7605 $ury=3.0150 $lvl=4
*|I (Mmn5:d Mmn5 d X 0 2.7605 0.7750) // $llx=2.7605 $lly=0.7750 $urx=2.7605 $ury=0.7750 $lvl=4
*|S (Y:1 2.9000 3.7450) // $llx=2.9000 $lly=3.7450 $urx=2.9000 $ury=3.7450 $lvl=2
*|S (Y:3 2.9000 3.0150) // $llx=2.9000 $lly=3.0150 $urx=2.9000 $ury=3.0150 $lvl=2
*|S (Y:4 2.9000 2.9850) // $llx=2.9000 $lly=2.9850 $urx=2.9000 $ury=2.9850 $lvl=2
*|S (Y:5 2.9000 2.2850) // $llx=2.9000 $lly=2.2850 $urx=2.9000 $ury=2.2850 $lvl=2
*|S (Y:6 2.9000 1.1550) // $llx=2.9000 $lly=1.1550 $urx=2.9000 $ury=1.1550 $lvl=2
*|S (Y:8 2.9000 0.7750) // $llx=2.9000 $lly=0.7750 $urx=2.9000 $ury=0.7750 $lvl=2
*|S (Y:9 2.9000 0.7450) // $llx=2.9000 $lly=0.7450 $urx=2.9000 $ury=0.7450 $lvl=2
*|S (Y:10 2.9000 0.3950) // $llx=2.9000 $lly=0.3950 $urx=2.9000 $ury=0.3950 $lvl=2
*|S (Y:11 2.9000 0.4200) // $llx=2.9000 $lly=0.4200 $urx=2.9000 $ury=0.4200 $lvl=1
*|S (Y:12 2.9000 0.7450) // $llx=2.9000 $lly=0.7450 $urx=2.9000 $ury=0.7450 $lvl=1
*|S (Y:13 3.0295 0.8425) // $llx=3.0295 $lly=0.8425 $urx=3.0295 $ury=0.8425 $lvl=1
*|S (Y:14 3.2200 0.9400) // $llx=3.2200 $lly=0.9400 $urx=3.2200 $ury=0.9400 $lvl=1
*|S (Y:15 3.2200 2.6100) // $llx=3.2200 $lly=2.6100 $urx=3.2200 $ury=2.6100 $lvl=1
*|S (Y:16 2.9000 2.6100) // $llx=2.9000 $lly=2.6100 $urx=2.9000 $ury=2.6100 $lvl=1
*|S (Y:17 2.9000 2.9850) // $llx=2.9000 $lly=2.9850 $urx=2.9000 $ury=2.9850 $lvl=1
CC1 Mmn5:d VSS! 1.66807e-18 $lvl=4
CC2 Mmp5:d VSS! 1.05511e-18 $lvl=4
CC3 Y:11 VSS! 2.77744e-18 $lvl=1
CC4 Y:16 VSS! 4.14607e-18 $lvl=1
CC5 Y:15 VSS! 8.61716e-18 $lvl=1
CC6 Y:14 VSS! 8.33588e-18 $lvl=1
CC7 Y:6 VSS! 2.29878e-17 $lvl=2
CC8 Y:10 VSS! 1.49581e-18 $lvl=2
CC9 Y:1 VSS! 6.20145e-18 $lvl=2
CC10 Y:5 VSS! 3.02772e-18 $lvl=2
CC11 Y:9 VSS! 2.20179e-18 $lvl=2
CC12 Y:4 VSS! 2.5886e-18 $lvl=2
CC13 Y VSS! 9.26219e-18 $lvl=1
CC14 Y n0:21 6.36338e-18 $lvl1=1 $lvl2=2
CC15 Y:4 n0:28 5.81838e-18 $lvl1=2 $lvl2=1
CC16 Y:1 n0:28 5.13292e-18 $lvl1=2 $lvl2=1
CC17 Y:9 n0:26 4.1436e-18 $lvl1=2 $lvl2=1
CC18 Y:15 n0:28 3.91807e-18 $lvl1=1 $lvl2=1
CC19 Y:5 n0:27 3.22989e-18 $lvl1=2 $lvl2=1
CC20 Y:9 n0:27 2.47449e-18 $lvl1=2 $lvl2=1
CC21 Y:14 n0:21 2.06191e-18 $lvl1=1 $lvl2=2
CC22 Y n0:9 2.05905e-18 $lvl1=1 $lvl2=3
CC23 Y:6 n0:27 1.91529e-18 $lvl1=2 $lvl2=1
CC24 Mmn5:d n0:9 1.73548e-18 $lvl1=4 $lvl2=3
CC25 Y:14 n0:26 1.68076e-18 $lvl1=1 $lvl2=1
CC26 Y:1 n0:27 1.64094e-18 $lvl1=2 $lvl2=1
CC27 Y:9 n0:21 1.55522e-18 $lvl1=2 $lvl2=2
CC28 Y:6 n0:23 1.37992e-18 $lvl1=2 $lvl2=2
CC29 Y n0:23 1.15161e-18 $lvl1=1 $lvl2=2
CC30 Y:4 n0:27 1.13099e-18 $lvl1=2 $lvl2=1
CC31 Y n0:28 1.1296e-18 $lvl1=1 $lvl2=1
CC32 Y:11 n0:21 1.07384e-18 $lvl1=1 $lvl2=2
CC33 Y:1 n0:9 1.0079e-18 $lvl1=2 $lvl2=3
CC34 Y:15 n0:21 9.90129e-19 $lvl1=1 $lvl2=2
CC35 Y:5 n0:8 9.77474e-19 $lvl1=2 $lvl2=3
CC36 Y n0:26 9.34868e-19 $lvl1=1 $lvl2=1
CC37 Y:5 n0:9 8.15261e-19 $lvl1=2 $lvl2=3
CC38 Y:5 n0:21 7.7917e-19 $lvl1=2 $lvl2=2
CC39 Y:6 n0:26 7.62098e-19 $lvl1=2 $lvl2=1
CC40 Y:9 n0:23 7.55703e-19 $lvl1=2 $lvl2=2
CC41 Y:11 n0:23 7.43111e-19 $lvl1=1 $lvl2=2
CC42 Y:15 n0:9 6.99605e-19 $lvl1=1 $lvl2=3
CC43 Y:14 n0:9 6.77627e-19 $lvl1=1 $lvl2=3
CC44 Y:1 n0:21 6.70161e-19 $lvl1=2 $lvl2=2
CC45 Y:10 n0 5.88938e-19 $lvl1=2 $lvl2=3
CC46 Y:16 n0:30 4.64046e-19 $lvl1=1 $lvl2=1
CC47 Y:15 n0:8 4.318e-19 $lvl1=1 $lvl2=3
CC48 Mmp5:d n0:9 4.04134e-19 $lvl1=4 $lvl2=3
CC49 Y:5 n0:23 3.87938e-19 $lvl1=2 $lvl2=2
CC50 Y n0:27 2.49879e-17 $lvl1=1 $lvl2=1
CC51 Y:15 n0:27 1.37904e-17 $lvl1=1 $lvl2=1
CC52 Y:1 n0:8 2.57682e-16 $lvl1=2 $lvl2=3
CC53 Y:16 n0:27 1.71426e-17 $lvl1=1 $lvl2=1
CC54 Y:6 n0 1.29209e-16 $lvl1=2 $lvl2=3
CC55 Y:6 n0:21 1.13303e-17 $lvl1=2 $lvl2=2
CC56 Y:16 n0:28 9.0004e-17 $lvl1=1 $lvl2=1
CC57 Y:11 n0:27 2.80757e-17 $lvl1=1 $lvl2=1
CC58 Y:6 n0:9 9.47833e-18 $lvl1=2 $lvl2=3
CC59 Y:14 n0:27 7.16607e-18 $lvl1=1 $lvl2=1
CC60 Y:11 n0:26 4.62825e-17 $lvl1=1 $lvl2=1
CC61 Y:16 n1:28 1.75873e-18 $lvl1=1 $lvl2=1
CC62 Y:15 n1:27 1.55578e-18 $lvl1=1 $lvl2=1
CC63 Y n1:27 1.4768e-18 $lvl1=1 $lvl2=1
CC64 Y:11 n1:26 1.14278e-18 $lvl1=1 $lvl2=1
CC65 Y:16 n1:27 1.11272e-18 $lvl1=1 $lvl2=1
CC66 Y:5 n1:21 9.38797e-19 $lvl1=2 $lvl2=2
CC67 Y:15 n1:28 8.81433e-19 $lvl1=1 $lvl2=1
CC68 Y:14 n1:27 8.43193e-19 $lvl1=1 $lvl2=1
CC69 Y:1 n1:9 7.79289e-19 $lvl1=2 $lvl2=3
CC70 Y n1:21 7.70685e-19 $lvl1=1 $lvl2=2
CC71 Y:5 n1:9 6.25381e-19 $lvl1=2 $lvl2=3
CC72 Y:11 n1:27 6.22101e-19 $lvl1=1 $lvl2=1
CC73 Y:14 n1:26 5.39919e-19 $lvl1=1 $lvl2=1
CC74 Y n1:26 5.3275e-19 $lvl1=1 $lvl2=1
CC75 Y:1 n1:21 4.61686e-19 $lvl1=2 $lvl2=2
CC76 Y VSS!:14 4.32534e-18 $lvl1=1 $lvl2=1
CC77 Y:9 VSS!:14 4.0929e-18 $lvl1=2 $lvl2=1
CC78 Y:10 VSS!:3 3.76887e-18 $lvl1=2 $lvl2=2
CC79 Y:9 VSS!:8 3.74318e-18 $lvl1=2 $lvl2=2
CC80 Y:14 VSS!:10 3.02599e-18 $lvl1=1 $lvl2=2
CC81 Y:10 VSS!:10 2.80808e-18 $lvl1=2 $lvl2=2
CC82 Mmn5:d VSS!:10 2.40236e-18 $lvl1=4 $lvl2=2
CC83 Y:6 VSS!:6 2.38876e-18 $lvl1=2 $lvl2=4
CC84 Y:9 VSS!:5 2.30434e-18 $lvl1=2 $lvl2=2
CC85 Y:6 VSS!:14 2.28987e-18 $lvl1=2 $lvl2=1
CC86 Y:11 VSS!:3 2.10065e-18 $lvl1=1 $lvl2=2
CC87 Y:9 VSS!:10 2.09854e-18 $lvl1=2 $lvl2=2
CC88 Y:15 VSS!:14 1.92644e-18 $lvl1=1 $lvl2=1
CC89 Y:11 VSS!:5 1.75436e-18 $lvl1=1 $lvl2=2
CC90 Y:10 VSS!:5 1.65566e-18 $lvl1=2 $lvl2=2
CC91 Mmn5:d VSS!:8 1.33783e-18 $lvl1=4 $lvl2=2
CC92 Y:11 VSS!:8 1.25832e-18 $lvl1=1 $lvl2=2
CC93 Y:11 VSS!:10 1.22599e-18 $lvl1=1 $lvl2=2
CC94 Y:10 VSS!:14 1.20992e-18 $lvl1=2 $lvl2=1
CC95 Y VSS!:10 1.1282e-18 $lvl1=1 $lvl2=2
CC96 Y:6 VSS!:5 9.68949e-19 $lvl1=2 $lvl2=2
CC97 Y:16 VSS!:14 6.88682e-19 $lvl1=1 $lvl2=1
CC98 Y:11 VSS!:14 4.21025e-17 $lvl1=1 $lvl2=1
CC99 Y:14 VSS!:14 1.57005e-17 $lvl1=1 $lvl2=1
CC100 Y:6 VSS!:10 7.44017e-18 $lvl1=2 $lvl2=2
CC101 Y:10 VSS!:8 9.88937e-18 $lvl1=2 $lvl2=2
CC102 Y:6 VSS!:8 7.80411e-18 $lvl1=2 $lvl2=2
CC103 Y:9 VSS!:3 1.5263e-17 $lvl1=2 $lvl2=2
CC104 Y:6 VSS!:3 3.95755e-17 $lvl1=2 $lvl2=2
CC105 Y:1 VDD!:15 6.66018e-18 $lvl1=2 $lvl2=1
CC106 Y:16 VDD!:14 5.71983e-18 $lvl1=1 $lvl2=1
CC107 Y:16 VDD!:11 4.6904e-18 $lvl1=1 $lvl2=2
CC108 Y:15 VDD!:14 3.75479e-18 $lvl1=1 $lvl2=1
CC109 Y:15 VDD!:15 3.53036e-18 $lvl1=1 $lvl2=1
CC110 Y:1 VDD!:7 3.38812e-18 $lvl1=2 $lvl2=4
CC111 Y:1 VDD!:6 3.14907e-18 $lvl1=2 $lvl2=2
CC112 Y:1 VDD!:14 2.89545e-18 $lvl1=2 $lvl2=1
CC113 Y:5 VDD! 2.51817e-18 $lvl1=2 $lvl2=1
CC114 Y:16 VDD!:13 2.04622e-18 $lvl1=1 $lvl2=2
CC115 Mmp5:d VDD!:4 1.74999e-18 $lvl1=4 $lvl2=2
CC116 Mmp5:d VDD!:13 1.70202e-18 $lvl1=4 $lvl2=2
CC117 Y:15 VDD!:13 1.63782e-18 $lvl1=1 $lvl2=2
CC118 Y:9 VDD! 1.47075e-18 $lvl1=2 $lvl2=1
CC119 Mmp5:d VDD!:11 1.43557e-18 $lvl1=4 $lvl2=2
CC120 Y:4 VDD!:15 1.36677e-18 $lvl1=2 $lvl2=1
CC121 Y:1 Mmp5:s 1.17296e-18 $lvl1=2 $lvl2=4
CC122 Y:16 VDD!:4 1.11503e-18 $lvl1=1 $lvl2=2
CC123 Y VDD!:15 1.06743e-18 $lvl1=1 $lvl2=1
CC124 Y:16 VDD!:6 9.99644e-19 $lvl1=1 $lvl2=2
CC125 Y:15 VDD!:11 9.54423e-19 $lvl1=1 $lvl2=2
CC126 Y:4 VDD! 9.50367e-19 $lvl1=2 $lvl2=1
CC127 Y:14 VDD!:15 7.83796e-19 $lvl1=1 $lvl2=1
CC128 Y VDD!:14 7.08643e-19 $lvl1=1 $lvl2=1
CC129 Y VDD!:11 5.42061e-19 $lvl1=1 $lvl2=2
CC130 Y:14 VDD!:14 5.29211e-19 $lvl1=1 $lvl2=1
CC131 Y:1 VDD!:11 9.53897e-17 $lvl1=2 $lvl2=2
CC132 Y:11 VDD! 6.76868e-18 $lvl1=1 $lvl2=1
CC133 Y:16 VDD! 1.38847e-17 $lvl1=1 $lvl2=1
CC134 Y:6 VDD! 7.48537e-18 $lvl1=2 $lvl2=1
CC135 Y:15 VDD! 3.23299e-17 $lvl1=1 $lvl2=1
CC136 Y:1 VDD!:4 2.00307e-17 $lvl1=2 $lvl2=2
CC137 Y:14 VDD! 2.03663e-17 $lvl1=1 $lvl2=1
CC138 Y:16 VDD!:15 2.11403e-17 $lvl1=1 $lvl2=1
CC139 Y:1 VDD! 5.00841e-17 $lvl1=2 $lvl2=1
CC140 Y:4 VDD!:11 6.93224e-18 $lvl1=2 $lvl2=2
CC141 Y:1 VDD!:13 1.40363e-17 $lvl1=2 $lvl2=2
CC142 Y VDD! 2.27907e-17 $lvl1=1 $lvl2=1
CC143 Y:5 VDD!:11 8.07983e-18 $lvl1=2 $lvl2=2
ReC39 Y:11 Y:12 0.156250 $metal1  $L=0.325 $W=0.260000 $SI_W=0.26 $TYPE=10 $DIR=1 $LLX=2.770000 $LLY=0.420000 $URX=3.030000 $URY=0.745000 $lvl=1
ReC40 Y:12 Y:13 0.035671 $metal1  $L=0.1295 $W=0.455000 $SI_W=0.455 $TYPE=10 $DIR=0 $LLX=2.900000 $LLY=0.615000 $URX=3.029500 $URY=1.070000 $lvl=1
ReC41 Y:13 Y:14 0.091535 $metal1  $L=0.19025 $W=0.260000 $SI_W=0.26 $TYPE=10 $DIR=0 $LLX=3.030000 $LLY=0.810000 $URX=3.220000 $URY=1.070000 $lvl=1
ReC42 Y:14 Y 0.305168 $metal1  $L=0.63475 $W=0.260000 $SI_W=0.26 $TYPE=10 $DIR=1 $LLX=3.090000 $LLY=0.940000 $URX=3.350000 $URY=1.575000 $lvl=1
ReC43 Y Y:15 0.497716 $metal1  $L=1.03525 $W=0.260000 $SI_W=0.26 $TYPE=10 $DIR=1 $LLX=3.090000 $LLY=1.575000 $URX=3.350000 $URY=2.610000 $lvl=1
ReC44 Y:15 Y:16 0.153846 $metal1  $L=0.32 $W=0.260000 $SI_W=0.26 $TYPE=10 $DIR=0 $LLX=2.900000 $LLY=2.480000 $URX=3.220000 $URY=2.740000 $lvl=1
ReC45 Y:16 Y:17 0.203668 $metal1  $L=0.37475 $W=0.230000 $SI_W=0.23 $TYPE=10 $DIR=1 $LLX=2.785000 $LLY=2.610000 $URX=3.015000 $URY=2.985000 $lvl=1
RfC46 Y:1 Y:3 54.964703 $li  $L=0.73 $W=0.170000 $SI_W=0.17 $TYPE=10 $DIR=1 $LLX=2.815000 $LLY=3.015000 $URX=2.985000 $URY=3.745000 $lvl=2
RfC47 Y:3 Y:4 0.431461 $li  $L=0.03 $W=0.170000 $SI_W=0.89 $TYPE=10 $DIR=1 $LLX=2.815000 $LLY=2.985000 $URX=2.985000 $URY=3.015000 $lvl=2
RfC48 Y:4 Y:5 52.705883 $li  $L=0.7 $W=0.170000 $SI_W=0.17 $TYPE=10 $DIR=1 $LLX=2.815000 $LLY=2.285000 $URX=2.985000 $URY=2.985000 $lvl=2
RfC49 Y:6 Y:8 28.611765 $li  $L=0.38 $W=0.170000 $SI_W=0.17 $TYPE=10 $DIR=1 $LLX=2.815000 $LLY=0.775000 $URX=2.985000 $URY=1.155000 $lvl=2
RfC50 Y:8 Y:9 0.783673 $li  $L=0.03 $W=0.170000 $SI_W=0.49 $TYPE=10 $DIR=1 $LLX=2.815000 $LLY=0.745000 $URX=2.985000 $URY=0.775000 $lvl=2
RfC51 Y:9 Y:10 26.352942 $li  $L=0.35 $W=0.170000 $SI_W=0.17 $TYPE=10 $DIR=1 $LLX=2.815000 $LLY=0.395000 $URX=2.985000 $URY=0.745000 $lvl=2
RhC52 Mmn5:d Y:8 7.500000 $licon_diff  $A=0.0578 $VC=0 $SAVL=0 $SAVC=0 $SI_A=0.0578 $COVER_DIR=0 $LLX=0.000000 $LLY=0.000000 $URX=-0.057800 $URY=-2.000000 $lvl=5
Rh_2_C53 Mmp5:d Y:3 3.750000 $licon_diff  $A=0.1156 $VC=0 $SAVL=0 $SAVC=0 $SI_A=0.1156 $COVER_DIR=0 $LLX=0.000000 $LLY=0.000000 $URX=-0.115600 $URY=-4.000000 $lvl=5
RjC54 Y:9 Y:12 76.000000 $mcon  $A=0.0578 $VC=0 $SAVL=0 $SAVC=0 $SI_A=0.0578 $COVER_DIR=0 $LLX=0.000000 $LLY=0.000000 $URX=-0.057800 $URY=-2.000000 $lvl=6
RjC55 Y:4 Y:17 50.666668 $mcon  $A=0.0867 $VC=0 $SAVL=0 $SAVC=0 $SI_A=0.0867 $COVER_DIR=0 $LLX=0.000000 $LLY=0.000000 $URX=-0.086700 $URY=-3.000000 $lvl=6
*
*|NET VDD! 2.35089e-15
*|P (VDD! X 0 1.6400 4.1450) // $llx=1.6400 $lly=4.1450 $urx=1.6400 $ury=4.1450 $lvl=1
*|I (Mmp3:b Mmp3 b X 0 1.7650 3.3550) // $llx=1.7650 $lly=3.3550 $urx=1.7650 $ury=3.3550 $lvl=8
*|I (Mmp5:s Mmp5 s X 0 2.6095 3.0150) // $llx=2.6095 $lly=3.0150 $urx=2.6095 $ury=3.0150 $lvl=4
*|I (Mmp5:b Mmp5 b X 0 2.6850 3.0150) // $llx=2.6850 $lly=3.0150 $urx=2.6850 $ury=3.0150 $lvl=8
*|I (Mmp4:b Mmp4 b X 0 1.3350 3.3550) // $llx=1.3350 $lly=3.3550 $urx=1.3350 $ury=3.3550 $lvl=8
*|I (Mmp1:s Mmp1 s X 0 0.5505 3.3550) // $llx=0.5505 $lly=3.3550 $urx=0.5505 $ury=3.3550 $lvl=4
*|I (Mmp1:b Mmp1 b X 0 0.4750 3.3550) // $llx=0.4750 $lly=3.3550 $urx=0.4750 $ury=3.3550 $lvl=8
*|I (Mmp0:s Mmp0 s X 0 0.8295 3.3550) // $llx=0.8295 $lly=3.3550 $urx=0.8295 $ury=3.3550 $lvl=4
*|I (Mmp0:b Mmp0 b X 0 0.9050 3.3550) // $llx=0.9050 $lly=3.3550 $urx=0.9050 $ury=3.3550 $lvl=8
*|I (Mmp2:s Mmp2 s X 0 2.2705 3.3550) // $llx=2.2705 $lly=3.3550 $urx=2.2705 $ury=3.3550 $lvl=4
*|I (Mmp2:b Mmp2 b X 0 2.1950 3.3550) // $llx=2.1950 $lly=3.3550 $urx=2.1950 $ury=3.3550 $lvl=8
*|S (VDD!:1 0.6900 2.9650) // $llx=0.6900 $lly=2.9650 $urx=0.6900 $ury=2.9650 $lvl=2
*|S (VDD!:3 0.6900 3.3550) // $llx=0.6900 $lly=3.3550 $urx=0.6900 $ury=3.3550 $lvl=2
*|S (VDD!:4 0.6900 4.1400) // $llx=0.6900 $lly=4.1400 $urx=0.6900 $ury=4.1400 $lvl=2
*|S (VDD!:5 0.0000 4.1400) // $llx=0.0000 $lly=4.1400 $urx=0.0000 $ury=4.1400 $lvl=2
*|S (VDD!:6 1.8400 4.1400) // $llx=1.8400 $lly=4.1400 $urx=1.8400 $ury=4.1400 $lvl=2
*|S (VDD!:7 1.8400 4.1400) // $llx=1.8400 $lly=4.1400 $urx=1.8400 $ury=4.1400 $lvl=4
*|S (VDD!:9 2.4700 4.1400) // $llx=2.4700 $lly=4.1400 $urx=2.4700 $ury=4.1400 $lvl=2
*|S (VDD!:11 2.4700 3.0150) // $llx=2.4700 $lly=3.0150 $urx=2.4700 $ury=3.0150 $lvl=2
*|S (VDD!:12 2.4700 2.2850) // $llx=2.4700 $lly=2.2850 $urx=2.4700 $ury=2.2850 $lvl=2
*|S (VDD!:13 3.6795 4.1400) // $llx=3.6795 $lly=4.1400 $urx=3.6795 $ury=4.1400 $lvl=2
*|S (VDD!:14 3.6800 4.1400) // $llx=3.6800 $lly=4.1400 $urx=3.6800 $ury=4.1400 $lvl=1
*|S (VDD!:15 1.8400 4.1400) // $llx=1.8400 $lly=4.1400 $urx=1.8400 $ury=4.1400 $lvl=1
*|S (VDD!:16 0.0000 4.1400) // $llx=0.0000 $lly=4.1400 $urx=0.0000 $ury=4.1400 $lvl=1
CD1 Mmp1:s VSS! 1.84403e-18 $lvl=4
CD2 Mmp5:s VSS! 2.50485e-18 $lvl=4
CD3 VDD!:15 VSS! 9.995e-18 $lvl=1
CD4 VDD!:14 VSS! 5.8776e-18 $lvl=1
CD5 VDD!:16 VSS! 7.49357e-18 $lvl=1
CD6 VDD!:11 VSS! 1.06628e-17 $lvl=2
CD7 VDD!:3 VSS! 4.85253e-18 $lvl=2
CD8 VDD!:13 VSS! 3.25052e-18 $lvl=2
CD9 VDD!:4 VSS! 4.41918e-18 $lvl=2
CD10 VDD!:5 VSS! 2.32854e-18 $lvl=2
CD11 VDD!:7 VSS! 2.30139e-18 $lvl=4
CD12 VDD!:6 VSS! 3.07929e-18 $lvl=2
CD13 VDD! VSS! 7.24164e-18 $lvl=1
CD14 VDD!:11 Mmp3:s 1.38975e-18 $lvl1=2 $lvl2=4