*
*|DSPF 1.5
*
*|DATE "Wed Jan  8 22:37:16 2025"
*|VENDOR "Cadence Design Systems"
*|PROGRAM "Cadence Quantus Extraction"
*|VERSION "22.1.0-p089 Linux 64 bit - (Thu Jan 19 11:47:08 PST 2023)"
*|DESIGN DFFRX1_HS
*|DIVIDER /
*|DELIMITER :
*|DeviceFingerDelim "@"
*|BUSBIT []
*|GLOBAL_TEMPERATURE 25
*|OPERATING_TEMPERATURE 25

** *VIA_COVERAGE_CODES
** *index FF FS FP FU SF SS SP SU PF PS PP PU UF US UP UU X_by_Y
** * "FF" stands for Full landing and Full coverage
** *0 0 0 0 0 0 0 0 0 0 0 0 0 0 0 0 0
** *1 0 0 0 0 0 0 0 0 0 0 0 0 0 0 0 1 1x1
** *2 0 0 0 0 0 0 0 0 0 0 0 0 0 0 1 0 1x1
** *3 0 0 0 0 0 0 0 0 0 0 0 0 0 1 0 0 1x1
** *4 0 0 0 0 0 0 0 0 0 0 0 0 1 0 0 0 1x1
** *5 0 0 0 0 0 0 0 0 0 0 0 1 0 0 0 0 1x1
** *6 0 0 0 0 0 0 0 0 0 0 1 0 0 0 0 0 1x1
** *7 0 0 0 0 0 0 0 0 0 1 0 0 0 0 0 0 1x1
** *8 0 0 0 0 0 0 0 0 1 0 0 0 0 0 0 0 1x1
** *9 0 0 0 0 0 0 0 1 0 0 0 0 0 0 0 0 1x1
** *10 0 0 0 0 0 0 1 0 0 0 0 0 0 0 0 0 1x1
** *11 0 0 0 0 0 1 0 0 0 0 0 0 0 0 0 0 1x1
** *12 0 0 0 0 1 0 0 0 0 0 0 0 0 0 0 0 1x1
** *13 0 0 0 1 0 0 0 0 0 0 0 0 0 0 0 0 1x1
** *14 0 0 1 0 0 0 0 0 0 0 0 0 0 0 0 0 1x1
** *15 0 1 0 0 0 0 0 0 0 0 0 0 0 0 0 0 1x1
** *16 1 0 0 0 0 0 0 0 0 0 0 0 0 0 0 0 1x1

** *RESISTOR_TYPES
** *1 SHORTING_ELEMENT
** *2 PRES_NG
** *3 PRES_PG
** *4 PRES_NF
** *5 PRES_PF
** *6 TCN_NDIFF
** *7 TCN_PDIFF
** *8 TCN_NFIELD
** *9 TCN_PFIELD
** *10 QUALITY_EXTRACTED
** *11 GCNLAND
** *12 TCNLAND
** *13 DUMMY
** *14 RSD
** *15 BRIDGE

** *RESISTOR_CURRENT_DIRECTION
** *0 HORIZONTAL
** *1 VERTICAL
** *2 45 DEGREE

** QRC_TECH_DIR /vols/wfo_devel/projects/reference_SKY130/tech/sky130_release_0.0.4/quantus/extraction/typical 
** HIERARCHICAL_SPLIT_PINS_DELIMITER '%'
** caps2d version: 10
*
.SUBCKT  DFFRX1_HS CK D Q QN RN
*
*Net Section
*
*|GROUND_NET VSS!
*
*LAYER_MAP
*0 none
*1 metal1
*2 li
*3 poly
*4 diff
*5 licon_diff
*6 mcon
*7 licon
*8 FOX

*|NET CK 8.7056e-16
*|P (CK X 0 0.9350 2.9100) // $llx=0.9350 $lly=2.9100 $urx=0.9350 $ury=2.9100 $lvl=1
*|I (Mmp20:g Mmp20 g X 0 0.4750 3.3550) // $llx=0.4750 $lly=3.3550 $urx=0.4750 $ury=3.3550 $lvl=3
*|I (Mmn20:g Mmn20 g X 0 0.4750 0.6075) // $llx=0.4750 $lly=0.6075 $urx=0.4750 $ury=0.6075 $lvl=3
*|S (CK:8 0.4750 3.8950) // $llx=0.4750 $lly=3.8950 $urx=0.4750 $ury=3.8950 $lvl=3
*|S (CK:9 0.4750 2.6500) // $llx=0.4750 $lly=2.6500 $urx=0.4750 $ury=2.6500 $lvl=3
*|S (CK:10 0.4750 2.4850) // $llx=0.4750 $lly=2.4850 $urx=0.4750 $ury=2.4850 $lvl=3
*|S (CK:11 0.4750 0.2450) // $llx=0.4750 $lly=0.2450 $urx=0.4750 $ury=0.2450 $lvl=3
*|S (CK:12 0.3100 2.6500) // $llx=0.3100 $lly=2.6500 $urx=0.3100 $ury=2.6500 $lvl=2
*|S (CK:13 0.4750 2.6500) // $llx=0.4750 $lly=2.6500 $urx=0.4750 $ury=2.6500 $lvl=2
*|S (CK:14 0.9050 2.6500) // $llx=0.9050 $lly=2.6500 $urx=0.9050 $ury=2.6500 $lvl=2
*|S (CK:15 0.9200 3.5550) // $llx=0.9200 $lly=3.5550 $urx=0.9200 $ury=3.5550 $lvl=1
*|S (CK:16 0.9050 2.6500) // $llx=0.9050 $lly=2.6500 $urx=0.9050 $ury=2.6500 $lvl=1
*|S (CK:17 0.9200 2.3150) // $llx=0.9200 $lly=2.3150 $urx=0.9200 $ury=2.3150 $lvl=1
CA1 Mmn20:g VSS! 2.06089e-18 $lvl=3
CA2 CK:16 VSS! 4.39629e-18 $lvl=1
CA3 CK:17 VSS! 6.02678e-18 $lvl=1
CA4 CK:8 VSS! 1.66022e-18 $lvl=3
CA5 CK:12 VSS! 4.51126e-18 $lvl=2
CA6 CK:14 VSS! 3.93882e-18 $lvl=2
CA7 CK:9 VSS! 4.78012e-18 $lvl=3
CA8 CK VSS! 7.30663e-18 $lvl=1
CA9 CK:16 n22:4 8.4653e-19 $lvl1=1 $lvl2=2
CA10 CK:9 n22:3 4.69512e-19 $lvl1=3 $lvl2=2
CA11 CK:16 n22:3 4.32354e-19 $lvl1=1 $lvl2=2
CA12 CK:9 n22:4 3.10304e-19 $lvl1=3 $lvl2=2
CA13 CK:14 n22:4 7.4265e-18 $lvl1=2 $lvl2=2
CA14 CK:14 n22:3 2.41506e-18 $lvl1=2 $lvl2=2
CA15 CK n22:3 1.02458e-17 $lvl1=1 $lvl2=2
CA16 CK n22:4 3.09835e-18 $lvl1=1 $lvl2=2
CA17 CK n22 3.77771e-18 $lvl1=1 $lvl2=2
CA18 CK:16 CKbb:39 2.868e-18 $lvl1=1 $lvl2=2
CA19 CK:17 CKbb:39 2.60541e-18 $lvl1=1 $lvl2=2
CA20 CK CKbb:39 1.58878e-18 $lvl1=1 $lvl2=2
CA21 CK:9 CKbb:17 1.43774e-18 $lvl1=3 $lvl2=3
CA22 CK:17 CKbb:17 7.71769e-19 $lvl1=1 $lvl2=3
CA23 CK:9 CKbb:39 5.82853e-19 $lvl1=3 $lvl2=2
CA24 CK:14 CKbb:39 1.68376e-17 $lvl1=2 $lvl2=2
CA25 CK:14 CKbb:17 4.50458e-18 $lvl1=2 $lvl2=3
CA26 CK:17 n20:26 2.89653e-18 $lvl1=1 $lvl2=1
CA27 CK n20:12 2.84255e-18 $lvl1=1 $lvl2=2
CA28 CK:14 n20:27 2.27026e-18 $lvl1=2 $lvl2=1
CA29 CK n20:15 2.00115e-18 $lvl1=1 $lvl2=2
CA30 CK:16 n20:26 7.91314e-19 $lvl1=1 $lvl2=1
CA31 CK:16 n20:28 7.25064e-19 $lvl1=1 $lvl2=1
CA32 CK:16 n20:27 1.47047e-17 $lvl1=1 $lvl2=1
CA33 CK n20:27 2.29479e-17 $lvl1=1 $lvl2=1
CA34 CK n20:28 1.58839e-17 $lvl1=1 $lvl2=1
CA35 CK:17 n20:27 1.80362e-17 $lvl1=1 $lvl2=1
CA36 CK:17 CKb:49 3.5246e-18 $lvl1=1 $lvl2=2
CA37 CK:16 CKb:54 3.5239e-18 $lvl1=1 $lvl2=1
CA38 CK:12 CKb:51 3.4537e-18 $lvl1=2 $lvl2=2
CA39 CK CKb:37 3.40029e-18 $lvl1=1 $lvl2=2
CA40 CK:9 CKb:51 3.0527e-18 $lvl1=3 $lvl2=2
CA41 CK:17 CKb:51 2.72643e-18 $lvl1=1 $lvl2=2
CA42 CK:12 CKb:40 2.53999e-18 $lvl1=2 $lvl2=2
CA43 CK:14 CKb:51 2.53682e-18 $lvl1=2 $lvl2=2
CA44 CK:14 CKb:49 2.14988e-18 $lvl1=2 $lvl2=2
CA45 CK CKb:54 2.03019e-18 $lvl1=1 $lvl2=1
CA46 CK:14 CKb:52 1.74447e-18 $lvl1=2 $lvl2=1
CA47 CK:14 CKb:54 1.737e-18 $lvl1=2 $lvl2=1
CA48 CK:9 Mmp20:d 1.7027e-18 $lvl1=3 $lvl2=4
CA49 CK:9 CKb:54 1.46342e-18 $lvl1=3 $lvl2=1
CA50 CK CKb:40 1.34549e-18 $lvl1=1 $lvl2=2
CA51 CK:9 CKb:52 1.1635e-18 $lvl1=3 $lvl2=1
CA52 CK:12 CKb:50 8.80238e-19 $lvl1=2 $lvl2=2
CA53 Mmn20:g CKb:45 7.86915e-19 $lvl1=3 $lvl2=2
CA54 CK:12 CKb:49 7.18097e-19 $lvl1=2 $lvl2=2
CA55 CK:9 CKb:49 6.86561e-19 $lvl1=3 $lvl2=2
CA56 CK:17 CKb:55 6.01164e-19 $lvl1=1 $lvl2=1
CA57 CK:9 CKb:50 5.62045e-19 $lvl1=3 $lvl2=2
CA58 CK:17 CKb:50 5.54855e-19 $lvl1=1 $lvl2=2
CA59 CK:14 CKb:37 5.39089e-19 $lvl1=2 $lvl2=2
CA60 CK:14 CKb:24 5.28358e-19 $lvl1=2 $lvl2=3
CA61 CK:9 CKb:40 4.89029e-19 $lvl1=3 $lvl2=2
CA62 Mmn20:g CKb:55 4.61112e-19 $lvl1=3 $lvl2=1
CA63 CK:16 CKb:37 3.67012e-19 $lvl1=1 $lvl2=2
CA64 CK:8 CKb:52 3.33647e-19 $lvl1=3 $lvl2=1
CA65 CK:14 CKb:40 3.32302e-19 $lvl1=2 $lvl2=2
CA66 Mmn20:g CKb:51 3.1977e-19 $lvl1=3 $lvl2=2
CA67 CK CKb:55 3.14943e-19 $lvl1=1 $lvl2=1
CA68 CK:16 CKb:49 3.14878e-19 $lvl1=1 $lvl2=2
CA69 CK:12 Mmp20:d 3.10414e-19 $lvl1=2 $lvl2=4
CA70 CK:17 CKb:24 3.09166e-19 $lvl1=1 $lvl2=3
CA71 Mmn20:g CKb:54 3.07625e-19 $lvl1=3 $lvl2=1
CA72 CK:12 CKb:37 1.2045e-17 $lvl1=2 $lvl2=2
CA73 Mmn20:g CKb:41 6.60318e-17 $lvl1=3 $lvl2=2
CA74 CK:12 CKb:52 1.16229e-17 $lvl1=2 $lvl2=1
CA75 CK:8 CKb:37 1.32202e-16 $lvl1=3 $lvl2=2
CA76 CK:16 CKb:52 1.17208e-17 $lvl1=1 $lvl2=1
CA77 CK:17 CKb:54 1.33333e-17 $lvl1=1 $lvl2=1
CA78 CK CKb:52 2.36407e-17 $lvl1=1 $lvl2=1
CA79 CK:9 CKb:37 7.25749e-18 $lvl1=3 $lvl2=2
CA80 CK:12 CKb:54 5.32659e-18 $lvl1=2 $lvl2=1
CA81 CK:17 CKb:52 6.84714e-18 $lvl1=1 $lvl2=1
CA82 Mmn20:g VSS!:20 7.91251e-18 $lvl1=3 $lvl2=2
CA83 Mmn20:g VSS!:30 6.73015e-17 $lvl1=3 $lvl2=2
CA84 CK:17 VDD! 3.54714e-18 $lvl1=1 $lvl2=1
CA85 CK VDD!:4 3.02545e-18 $lvl1=1 $lvl2=2
CA86 CK VDD!:38 2.8371e-18 $lvl1=1 $lvl2=1
CA87 CK:14 VDD! 2.43131e-18 $lvl1=2 $lvl2=1
CA88 CK:16 VDD! 2.35563e-18 $lvl1=1 $lvl2=1
CA89 CK VDD!:6 2.05952e-18 $lvl1=1 $lvl2=2
CA90 CK:16 VDD!:1 1.56113e-18 $lvl1=1 $lvl2=2
CA91 CK:16 VDD!:37 1.21818e-18 $lvl1=1 $lvl2=1
CA92 CK:9 Mmp20:s 1.11761e-18 $lvl1=3 $lvl2=4
CA93 CK:12 VDD!:1 1.10428e-17 $lvl1=2 $lvl2=2
CA94 CK:14 VDD!:1 1.19568e-17 $lvl1=2 $lvl2=2
CA95 CK:8 VDD!:1 1.28149e-16 $lvl1=3 $lvl2=2
CA96 CK:9 VDD! 1.69324e-17 $lvl1=3 $lvl2=1
CA97 CK VDD!:37 3.22041e-17 $lvl1=1 $lvl2=1
CA98 CK VDD!:1 1.84633e-17 $lvl1=1 $lvl2=2
CA99 CK:8 VDD!:4 8.47029e-18 $lvl1=3 $lvl2=2
CA100 CK:12 VDD! 5.16687e-18 $lvl1=2 $lvl2=1
CA101 CK:9 VDD!:1 5.27861e-18 $lvl1=3 $lvl2=2
CA102 CK VDD! 8.41821e-18 $lvl1=1 $lvl2=1
CA103 Mmn20:g D:9 2.62632e-18 $lvl1=3 $lvl2=3
CA104 CK:9 D:8 2.27281e-18 $lvl1=3 $lvl2=3
CA105 CK:14 D:8 1.60165e-18 $lvl1=2 $lvl2=3
CA106 Mmn20:g D:15 1.2954e-18 $lvl1=3 $lvl2=2
CA107 CK:16 D:16 6.20318e-19 $lvl1=1 $lvl2=1
CA108 CK:17 D:16 4.85466e-18 $lvl1=1 $lvl2=1
ReA1 CK:15 CK 0.310096 $metal1  $L=0.645 $W=0.260000 $SI_W=0.26 $TYPE=10 $DIR=1 $LLX=0.790000 $LLY=2.910000 $URX=1.050000 $URY=3.555000 $lvl=1
ReA2 CK CK:16 0.125000 $metal1  $L=0.26 $W=0.260000 $SI_W=0.26 $TYPE=10 $DIR=1 $LLX=0.790000 $LLY=2.650000 $URX=1.050000 $URY=2.910000 $lvl=1
ReA3 CK:16 CK:17 0.161058 $metal1  $L=0.335 $W=0.260000 $SI_W=0.26 $TYPE=10 $DIR=1 $LLX=0.790000 $LLY=2.315000 $URX=1.050000 $URY=2.650000 $lvl=1
RfA4 CK:12 CK:13 12.423529 $li  $L=0.165 $W=0.170000 $SI_W=0.17 $TYPE=10 $DIR=0 $LLX=0.310000 $LLY=2.565000 $URX=0.475000 $URY=2.735000 $lvl=2
RfA5 CK:13 CK:14 32.376472 $li  $L=0.43 $W=0.170000 $SI_W=0.17 $TYPE=10 $DIR=0 $LLX=0.475000 $LLY=2.565000 $URX=0.905000 $URY=2.735000 $lvl=2
RgA6 CK:8 Mmp20:g 173.519989 $poly  $L=0.54 $W=0.150000 $SI_W=0.15 $TYPE=10 $DIR=1 $LLX=0.400000 $LLY=3.355000 $URX=0.550000 $URY=3.895000 $lvl=3
RgA7 Mmp20:g CK:9 207.699081 $poly  $L=0.705 $W=0.150000 $SI_W=0.15 $TYPE=10 $DIR=1 $LLX=0.400000 $LLY=2.650000 $URX=0.550000 $URY=3.355000 $lvl=3
RgA8 CK:9 CK:10 34.134449 $poly  $L=0.1645 $W=0.270000 $SI_W=0.27 $TYPE=10 $DIR=1 $LLX=0.340000 $LLY=2.485000 $URX=0.610000 $URY=2.650000 $lvl=3
RgA9 CK:10 Mmn20:g 603.347961 $poly  $L=1.8775 $W=0.150000 $SI_W=0.15 $TYPE=10 $DIR=1 $LLX=0.400000 $LLY=0.607500 $URX=0.550000 $URY=2.485000 $lvl=3
RgA10 Mmn20:g CK:11 116.483322 $poly  $L=0.3625 $W=0.150000 $SI_W=0.15 $TYPE=10 $DIR=1 $LLX=0.400000 $LLY=0.245000 $URX=0.550000 $URY=0.607500 $lvl=3
RjA11 CK:14 CK:16 152.000000 $mcon  $L=0.17 $W=0.17 $A=0.0289 $VC=0 $SAVL=0 $SAVC=0 $SI_A=0.0289 $COVER_DIR=0 $LLX=0.000000 $LLY=0.000000 $URX=0.170000 $URY=0.170000 $lvl=6
RiA12 CK:9 CK:13 15.000000 $licon  $L=0.17 $W=0.17 $A=0.0289 $VC=0 $SAVL=0 $SAVC=0 $SI_A=0.0289 $COVER_DIR=0 $LLX=0.000000 $LLY=0.000000 $URX=0.170000 $URY=0.170000 $lvl=7
*
*|NET n30 2.25211e-15
*|I (Mmp51:d Mmp51 d X 0 4.7895 3.3550) // $llx=4.7895 $lly=3.3550 $urx=4.7895 $ury=3.3550 $lvl=4
*|I (Mmp40:d Mmp40 d X 0 4.5105 3.3550) // $llx=4.5105 $lly=3.3550 $urx=4.5105 $ury=3.3550 $lvl=4
*|I (Mmp46:g Mmp46 g X 0 6.2450 3.3550) // $llx=6.2450 $lly=3.3550 $urx=6.2450 $ury=3.3550 $lvl=3
*|I (Mmn40:d Mmn40 d X 0 4.5105 0.6075) // $llx=4.5105 $lly=0.6075 $urx=4.5105 $ury=0.6075 $lvl=4
*|I (Mmn46:g Mmn46 g X 0 6.2450 0.6075) // $llx=6.2450 $lly=0.6075 $urx=6.2450 $ury=0.6075 $lvl=3
*|I (Mmn51:d Mmn51 d X 0 4.7895 0.6075) // $llx=4.7895 $lly=0.6075 $urx=4.7895 $ury=0.6075 $lvl=4
*|S (n30 6.2450 0.6075) // $llx=6.2450 $lly=0.6075 $urx=6.2450 $ury=0.6075 $lvl=3
*|S (n30:8 6.2450 3.8950) // $llx=6.2450 $lly=3.8950 $urx=6.2450 $ury=3.8950 $lvl=3
*|S (n30:9 6.1850 1.5995) // $llx=6.1850 $lly=1.5995 $urx=6.1850 $ury=1.5995 $lvl=3
*|S (n30:10 6.1850 1.4350) // $llx=6.1850 $lly=1.4350 $urx=6.1850 $ury=1.4350 $lvl=3
*|S (n30:11 6.1850 1.2700) // $llx=6.1850 $lly=1.2700 $urx=6.1850 $ury=1.2700 $lvl=3
*|S (n30:12 6.2450 0.2450) // $llx=6.2450 $lly=0.2450 $urx=6.2450 $ury=0.2450 $lvl=3
*|S (n30:13 4.6500 3.7450) // $llx=4.6500 $lly=3.7450 $urx=4.6500 $ury=3.7450 $lvl=2
*|S (n30:15 4.6500 3.3550) // $llx=4.6500 $lly=3.3550 $urx=4.6500 $ury=3.3550 $lvl=2
*|S (n30:16 4.6500 3.0900) // $llx=4.6500 $lly=3.0900 $urx=4.6500 $ury=3.0900 $lvl=2
*|S (n30:17 4.6500 0.8200) // $llx=4.6500 $lly=0.8200 $urx=4.6500 $ury=0.8200 $lvl=2
*|S (n30:18 4.6500 0.6550) // $llx=4.6500 $lly=0.6550 $urx=4.6500 $ury=0.6550 $lvl=2
*|S (n30:20 4.6500 0.6050) // $llx=4.6500 $lly=0.6050 $urx=4.6500 $ury=0.6050 $lvl=2
*|S (n30:21 4.6500 0.3950) // $llx=4.6500 $lly=0.3950 $urx=4.6500 $ury=0.3950 $lvl=2
*|S (n30:22 6.3700 1.4350) // $llx=6.3700 $lly=1.4350 $urx=6.3700 $ury=1.4350 $lvl=2
*|S (n30:23 6.1850 1.4350) // $llx=6.1850 $lly=1.4350 $urx=6.1850 $ury=1.4350 $lvl=2
*|S (n30:24 4.6500 1.4350) // $llx=4.6500 $lly=1.4350 $urx=4.6500 $ury=1.4350 $lvl=2
*|S (n30:25 4.5250 1.4350) // $llx=4.5250 $lly=1.4350 $urx=4.5250 $ury=1.4350 $lvl=2
*|S (n30:26 4.6500 3.2350) // $llx=4.6500 $lly=3.2350 $urx=4.6500 $ury=3.2350 $lvl=1
*|S (n30:27 4.6500 3.0900) // $llx=4.6500 $lly=3.0900 $urx=4.6500 $ury=3.0900 $lvl=1
*|S (n30:28 4.6500 1.4350) // $llx=4.6500 $lly=1.4350 $urx=4.6500 $ury=1.4350 $lvl=1
*|S (n30:29 4.6500 0.6550) // $llx=4.6500 $lly=0.6550 $urx=4.6500 $ury=0.6550 $lvl=1
*|S (n30:30 4.6500 0.5100) // $llx=4.6500 $lly=0.5100 $urx=4.6500 $ury=0.5100 $lvl=1
CL1 Mmn40:d VSS! 2.92939e-18 $lvl=4
CL2 Mmp51:d VSS! 2.60487e-18 $lvl=4
CL3 n30:29 VSS! 8.74134e-18 $lvl=1
CL4 n30:28 VSS! 1.04715e-17 $lvl=1
CL5 n30:27 VSS! 1.38643e-17 $lvl=1
CL6 n30:8 VSS! 3.83967e-18 $lvl=3
CL7 n30:12 VSS! 2.70048e-18 $lvl=3
CL8 n30:22 VSS! 1.61779e-17 $lvl=2
CL9 n30:25 VSS! 1.14369e-17 $lvl=2
CL10 n30:20 VSS! 8.56486e-18 $lvl=2
CL11 n30:21 VSS! 4.22988e-18 $lvl=2
CL12 n30:18 VSS! 2.74844e-18 $lvl=2
CL13 n30:24 VSS! 2.56464e-18 $lvl=2
CL14 n30:16 VSS! 1.01827e-17 $lvl=2
CL15 n30:10 VSS! 3.02552e-17 $lvl=3
CL16 n30:10 n35 1.08299e-18 $lvl1=3 $lvl2=2
CL17 n30:12 n35 9.00788e-19 $lvl1=3 $lvl2=2
CL18 n30:12 n35:3 6.46654e-17 $lvl1=3 $lvl2=2
CL19 n30:22 n35:3 1.34609e-18 $lvl1=2 $lvl2=2
CL20 n30:10 n35:3 1.41099e-18 $lvl1=3 $lvl2=2
CL21 n30:22 n35 1.52656e-18 $lvl1=2 $lvl2=2
CL22 n30:27 n41:4 1.33875e-18 $lvl1=1 $lvl2=2
CL23 n30:27 n41 1.07552e-18 $lvl1=1 $lvl2=2
CL24 n30:20 n40:4 1.24083e-18 $lvl1=2 $lvl2=2
CL25 n30:18 n40:4 9.14801e-19 $lvl1=2 $lvl2=2
CL26 n30:29 n40:4 8.68651e-19 $lvl1=1 $lvl2=2
CL27 n30:29 n40 7.53842e-19 $lvl1=1 $lvl2=2
CL28 n30:25 n40:3 5.72087e-19 $lvl1=2 $lvl2=2
CL29 n30:22 n40:3 4.44668e-19 $lvl1=2 $lvl2=2
CL30 n30:20 Mmn51:s 3.69618e-19 $lvl1=2 $lvl2=4
CL31 n30:25 n40 2.98331e-19 $lvl1=2 $lvl2=2
CL32 n30:29 n40:3 2.41485e-18 $lvl1=1 $lvl2=2
CL33 n30:20 n40:3 1.50059e-17 $lvl1=2 $lvl2=2
CL34 n30:16 n41 1.03587e-17 $lvl1=2 $lvl2=2
CL35 n30:18 n40:3 4.48707e-18 $lvl1=2 $lvl2=2
CL36 n30:18 n40 1.42665e-18 $lvl1=2 $lvl2=2
CL37 n30:21 n40:4 2.28511e-18 $lvl1=2 $lvl2=2
CL38 n30:21 n40:3 3.25214e-18 $lvl1=2 $lvl2=2
CL39 n30:16 n41:3 3.08882e-17 $lvl1=2 $lvl2=2
CL40 n30:20 n40 2.50427e-18 $lvl1=2 $lvl2=2
CL41 n30:16 n41:4 6.16161e-18 $lvl1=2 $lvl2=2
CL42 n30:27 n41:3 3.17275e-18 $lvl1=1 $lvl2=2
CL43 n30:22 qbint:54 8.98766e-18 $lvl1=2 $lvl2=1
CL44 n30:22 qbint:56 7.12704e-18 $lvl1=2 $lvl2=1
CL45 n30:22 qbint:24 6.28236e-18 $lvl1=2 $lvl2=3
CL46 n30:22 qbint:55 6.15449e-18 $lvl1=2 $lvl2=1
CL47 n30:22 qbint:37 5.08948e-18 $lvl1=2 $lvl2=2
CL48 n30:10 qbint:37 3.0494e-18 $lvl1=3 $lvl2=2
CL49 n30:10 qbint:51 2.6615e-18 $lvl1=3 $lvl2=2
CL50 n30:16 qbint:22 1.6697e-18 $lvl1=2 $lvl2=3
CL51 n30:10 qbint:24 1.54778e-18 $lvl1=3 $lvl2=3
CL52 n30:27 qbint:53 1.48817e-18 $lvl1=1 $lvl2=1
CL53 n30:29 qbint:56 1.36062e-18 $lvl1=1 $lvl2=1
CL54 n30:10 qbint:29 1.23972e-18 $lvl1=3 $lvl2=3
CL55 n30:22 qbint:38 1.1727e-18 $lvl1=2 $lvl2=2
CL56 n30:10 qbint:55 1.11807e-18 $lvl1=3 $lvl2=1
CL57 n30:10 qbint:48 1.10293e-18 $lvl1=3 $lvl2=2
CL58 n30:22 qbint 1.08955e-18 $lvl1=2 $lvl2=3
CL59 n30:28 qbint:56 9.36103e-19 $lvl1=1 $lvl2=1
CL60 n30:28 qbint:51 8.68817e-19 $lvl1=1 $lvl2=2
CL61 n30:10 qbint:56 8.17342e-19 $lvl1=3 $lvl2=1
CL62 n30:25 qbint 7.98433e-19 $lvl1=2 $lvl2=3
CL63 n30:12 qbint:41 7.58002e-19 $lvl1=3 $lvl2=2
CL64 n30:22 qbint:48 7.34228e-19 $lvl1=2 $lvl2=2
CL65 n30:20 qbint 7.1185e-19 $lvl1=2 $lvl2=3
CL66 n30:10 Mmn46:d 6.36562e-19 $lvl1=3 $lvl2=4
CL67 n30:22 qbint:29 6.13874e-19 $lvl1=2 $lvl2=3
CL68 n30:27 qbint:54 5.75854e-19 $lvl1=1 $lvl2=1
CL69 n30:28 qbint:54 4.56436e-19 $lvl1=1 $lvl2=1
CL70 n30:22 qbint:53 4.3367e-19 $lvl1=2 $lvl2=1
CL71 n30:22 qbint:49 3.7875e-17 $lvl1=2 $lvl2=2
CL72 n30:12 qbint:37 6.66704e-17 $lvl1=3 $lvl2=2
CL73 n30:25 qbint:51 2.07971e-17 $lvl1=2 $lvl2=2
CL74 n30:8 qbint:45 1.30191e-16 $lvl1=3 $lvl2=2
CL75 n30:22 qbint:51 3.36116e-17 $lvl1=2 $lvl2=2
CL76 n30:10 qbint:49 1.37606e-17 $lvl1=3 $lvl2=2
CL77 n30:25 qbint:24 1.01492e-17 $lvl1=2 $lvl2=3
CL78 n30:21 VSS!:9 7.89568e-18 $lvl1=2 $lvl2=2
CL79 n30:21 VSS!:10 7.35837e-18 $lvl1=2 $lvl2=2
CL80 n30:22 VSS!:18 5.92208e-18 $lvl1=2 $lvl2=2
CL81 n30:12 VSS!:8 5.04043e-18 $lvl1=3 $lvl2=2
CL82 n30:20 VSS!:9 4.88784e-18 $lvl1=2 $lvl2=2
CL83 n30:12 VSS!:9 4.26083e-18 $lvl1=3 $lvl2=2
CL84 n30:28 VSS!:33 4.05038e-18 $lvl1=1 $lvl2=1
CL85 n30:21 VSS!:33 2.74925e-18 $lvl1=2 $lvl2=1
CL86 n30:18 VSS!:33 2.6054e-18 $lvl1=2 $lvl2=1
CL87 n30:18 VSS!:10 1.97353e-18 $lvl1=2 $lvl2=2
CL88 n30:20 VSS!:10 1.78609e-18 $lvl1=2 $lvl2=2
CL89 n30:29 VSS!:10 1.75893e-18 $lvl1=1 $lvl2=2
CL90 n30:10 VSS!:18 1.56805e-18 $lvl1=3 $lvl2=2
CL91 n30:22 VSS!:15 1.51986e-18 $lvl1=2 $lvl2=2
CL92 n30:25 VSS!:18 1.49935e-18 $lvl1=2 $lvl2=2
CL93 n30:27 VSS!:33 1.43929e-18 $lvl1=1 $lvl2=1
CL94 n30:18 VSS!:9 1.27128e-18 $lvl1=2 $lvl2=2
CL95 n30:10 VSS!:15 1.23264e-18 $lvl1=3 $lvl2=2
CL96 n30:12 VSS!:18 1.16823e-18 $lvl1=3 $lvl2=2
CL97 n30:29 VSS!:33 3.29173e-17 $lvl1=1 $lvl2=1
ReL351 n30:26 n30:27 0.078804 $metal1  $L=0.145 $W=0.230000 $SI_W=0.23 $TYPE=10 $DIR=1 $LLX=4.535000 $LLY=3.090000 $URX=4.765000 $URY=3.235000 $lvl=1
ReL352 n30:27 n30:28 0.899457 $metal1  $L=1.655 $W=0.230000 $SI_W=0.23 $TYPE=10 $DIR=1 $LLX=4.535000 $LLY=1.435000 $URX=4.765000 $URY=3.090000 $lvl=1
ReL353 n30:28 n30:29 0.423913 $metal1  $L=0.78 $W=0.230000 $SI_W=0.23 $TYPE=10 $DIR=1 $LLX=4.535000 $LLY=0.655000 $URX=4.765000 $URY=1.435000 $lvl=1
ReL354 n30:29 n30:30 0.078804 $metal1  $L=0.145 $W=0.230000 $SI_W=0.23 $TYPE=10 $DIR=1 $LLX=4.535000 $LLY=0.510000 $URX=4.765000 $URY=0.655000 $lvl=1
RfL355 n30:13 n30:15 29.364706 $li  $L=0.39 $W=0.170000 $SI_W=0.17 $TYPE=10 $DIR=1 $LLX=4.565000 $LLY=3.355000 $URX=4.735000 $URY=3.745000 $lvl=2
RfL356 n30:15 n30:16 19.952942 $li  $L=0.265 $W=0.170000 $SI_W=0.17 $TYPE=10 $DIR=1 $LLX=4.565000 $LLY=3.090000 $URX=4.735000 $URY=3.355000 $lvl=2
RfL357 n30:17 n30:18 12.423529 $li  $L=0.165 $W=0.170000 $SI_W=0.17 $TYPE=10 $DIR=1 $LLX=4.565000 $LLY=0.655000 $URX=4.735000 $URY=0.820000 $lvl=2
RfL358 n30:18 n30:20 3.764706 $li  $L=0.05 $W=0.170000 $SI_W=0.17 $TYPE=10 $DIR=1 $LLX=4.565000 $LLY=0.605000 $URX=4.735000 $URY=0.655000 $lvl=2
RfL359 n30:20 n30:21 15.811765 $li  $L=0.21 $W=0.170000 $SI_W=0.17 $TYPE=10 $DIR=1 $LLX=4.565000 $LLY=0.395000 $URX=4.735000 $URY=0.605000 $lvl=2
RfL360 n30:22 n30:23 13.929413 $li  $L=0.185 $W=0.170000 $SI_W=0.17 $TYPE=10 $DIR=0 $LLX=6.185000 $LLY=1.350000 $URX=6.370000 $URY=1.520000 $lvl=2
RfL361 n30:23 n30:24 115.576462 $li  $L=1.535 $W=0.170000 $SI_W=0.17 $TYPE=10 $DIR=0 $LLX=4.650000 $LLY=1.350000 $URX=6.185000 $URY=1.520000 $lvl=2
RfL362 n30:24 n30:25 9.411764 $li  $L=0.125 $W=0.170000 $SI_W=0.17 $TYPE=10 $DIR=0 $LLX=4.525000 $LLY=1.350000 $URX=4.650000 $URY=1.520000 $lvl=2
RgL363 n30:8 Mmp46:g 173.519989 $poly  $L=0.54 $W=0.150000 $SI_W=0.15 $TYPE=10 $DIR=1 $LLX=6.170000 $LLY=3.355000 $URX=6.320000 $URY=3.895000 $lvl=3
RgL364 Mmp46:g n30:9 563.984619 $poly  $L=1.755 $W=0.150000 $SI_W=0.15 $TYPE=10 $DIR=1 $LLX=6.170000 $LLY=1.599500 $URX=6.320000 $URY=3.354500 $lvl=3
RgL365 n30:9 n30:10 38.857975 $poly  $L=0.1645 $W=0.270000 $SI_W=0.27 $TYPE=10 $DIR=1 $LLX=6.050000 $LLY=1.435000 $URX=6.320000 $URY=1.599500 $lvl=3
RgL366 n30:10 n30:11 29.410927 $poly  $L=0.1645 $W=0.270000 $SI_W=0.27 $TYPE=10 $DIR=1 $LLX=6.050000 $LLY=1.270500 $URX=6.320000 $URY=1.435000 $lvl=3
RgL367 n30:11 n30 212.927963 $poly  $L=0.6625 $W=0.150000 $SI_W=0.15 $TYPE=10 $DIR=1 $LLX=6.170000 $LLY=0.607500 $URX=6.320000 $URY=1.270000 $lvl=3
RgL368 n30 n30:12 116.483322 $poly  $L=0.3625 $W=0.150000 $SI_W=0.15 $TYPE=10 $DIR=1 $LLX=6.170000 $LLY=0.245000 $URX=6.320000 $URY=0.607500 $lvl=3
RhL369 Mmn40:d n30:20 15.000000 $licon_diff  $L=0.17 $W=0.17 $A=0.0289 $VC=0 $SAVL=0 $SAVC=0 $SI_A=0.0289 $COVER_DIR=0 $LLX=0.000000 $LLY=0.000000 $URX=0.170000 $URY=0.170000 $lvl=5
Rh_2_L370 Mmp51:d n30:15 7.500000 $licon_diff  $A=0.0578 $VC=0 $SAVL=0 $SAVC=0 $SI_A=0.0578 $COVER_DIR=0 $LLX=0.000000 $LLY=0.000000 $URX=-0.057800 $URY=-2.000000 $lvl=5
RjL371 n30:16 n30:27 152.000000 $mcon  $L=0.17 $W=0.17 $A=0.0289 $VC=0 $SAVL=0 $SAVC=0 $SI_A=0.0289 $COVER_DIR=0 $LLX=0.000000 $LLY=0.000000 $URX=0.170000 $URY=0.170000 $lvl=6
RjL372 n30:24 n30:28 152.000000 $mcon  $L=0.17 $W=0.17 $A=0.0289 $VC=0 $SAVL=0 $SAVC=0 $SI_A=0.0289 $COVER_DIR=0 $LLX=0.000000 $LLY=0.000000 $URX=0.170000 $URY=0.170000 $lvl=6
RjL373 n30:18 n30:29 152.000000 $mcon  $L=0.17 $W=0.17 $A=0.0289 $VC=0 $SAVL=0 $SAVC=0 $SI_A=0.0289 $COVER_DIR=0 $LLX=0.000000 $LLY=0.000000 $URX=0.170000 $URY=0.170000 $lvl=6
RiL374 n30:10 n30:23 15.000000 $licon  $L=0.17 $W=0.17 $A=0.0289 $VC=0 $SAVL=0 $SAVC=0 $SI_A=0.0289 $COVER_DIR=0 $LLX=0.000000 $LLY=0.000000 $URX=0.170000 $URY=0.170000 $lvl=7
RmwL375 Mmp40:d Mmp51:d 0.001000 $diff $W=1000000 $SI_W=1000000 $TYPE=1 $DIR=0
RmwL376 Mmn46:g n30 0.001000 $poly $W=1000000 $SI_W=1000000 $TYPE=1 $DIR=0
RmwL377 Mmn51:d Mmn40:d 0.001000 $diff $W=1000000 $SI_W=1000000 $TYPE=1 $DIR=0
*
*|NET QN 1.18986e-15
*|P (QN X 0 8.7550 2.0550) // $llx=8.7550 $lly=2.0550 $urx=8.7550 $ury=2.0550 $lvl=1
*|I (Mmp57:d Mmp57 d X 0 8.5605 3.0150) // $llx=8.5605 $lly=3.0150 $urx=8.5605 $ury=3.0150 $lvl=4
*|I (Mmn57:d Mmn57 d X 0 8.5605 0.7750) // $llx=8.5605 $lly=0.7750 $urx=8.5605 $ury=0.7750 $lvl=4
*|S (QN:1 8.7000 3.7450) // $llx=8.7000 $lly=3.7450 $urx=8.7000 $ury=3.7450 $lvl=2
*|S (QN:3 8.7000 3.0150) // $llx=8.7000 $lly=3.0150 $urx=8.7000 $ury=3.0150 $lvl=2
*|S (QN:4 8.7000 2.9450) // $llx=8.7000 $lly=2.9450 $urx=8.7000 $ury=2.9450 $lvl=2
*|S (QN:5 8.7000 2.2850) // $llx=8.7000 $lly=2.2850 $urx=8.7000 $ury=2.2850 $lvl=2
*|S (QN:6 8.7000 1.1550) // $llx=8.7000 $lly=1.1550 $urx=8.7000 $ury=1.1550 $lvl=2
*|S (QN:7 8.7000 0.8100) // $llx=8.7000 $lly=0.8100 $urx=8.7000 $ury=0.8100 $lvl=2
*|S (QN:9 8.7000 0.7750) // $llx=8.7000 $lly=0.7750 $urx=8.7000 $ury=0.7750 $lvl=2
*|S (QN:10 8.7000 0.3950) // $llx=8.7000 $lly=0.3950 $urx=8.7000 $ury=0.3950 $lvl=2
*|S (QN:11 8.7275 1.1350) // $llx=8.7275 $lly=1.1350 $urx=8.7275 $ury=1.1350 $lvl=1
*|S (QN:12 8.7000 0.8100) // $llx=8.7000 $lly=0.8100 $urx=8.7000 $ury=0.8100 $lvl=1
*|S (QN:13 8.7275 0.6800) // $llx=8.7275 $lly=0.6800 $urx=8.7275 $ury=0.6800 $lvl=1
*|S (QN:14 8.7000 0.4850) // $llx=8.7000 $lly=0.4850 $urx=8.7000 $ury=0.4850 $lvl=1
*|S (QN:15 8.7000 2.9450) // $llx=8.7000 $lly=2.9450 $urx=8.7000 $ury=2.9450 $lvl=1
*|S (QN:16 8.7275 3.4500) // $llx=8.7275 $lly=3.4500 $urx=8.7275 $ury=3.4500 $lvl=1
CD1 Mmn57:d VSS! 6.69952e-19 $lvl=4
CD2 Mmp57:d VSS! 1.16243e-18 $lvl=4
CD3 QN:15 VSS! 7.53444e-18 $lvl=1
CD4 QN:12 VSS! 5.07197e-18 $lvl=1
CD5 QN:13 VSS! 2.78778e-18 $lvl=1
CD6 QN:11 VSS! 6.98505e-18 $lvl=1
CD7 QN:14 VSS! 2.66096e-18 $lvl=1
CD8 QN:6 VSS! 1.88437e-17 $lvl=2
CD9 QN:10 VSS! 1.01819e-18 $lvl=2
CD10 QN:1 VSS! 5.37386e-18 $lvl=2
CD11 QN:5 VSS! 2.7638e-18 $lvl=2
CD12 QN:7 VSS! 2.56139e-18 $lvl=2
CD13 QN:4 VSS! 1.75817e-18 $lvl=2
CD14 QN VSS! 7.46256e-18 $lvl=1
CD15 QN:7 qint:17 2.88062e-18 $lvl1=2 $lvl2=2
CD16 QN:15 qint:26 2.19705e-18 $lvl1=1 $lvl2=1
CD17 QN qint:10 2.1792e-18 $lvl1=1 $lvl2=3
CD18 Mmn57:d qint:10 2.03898e-18 $lvl1=4 $lvl2=3
CD19 QN:15 qint:27 1.41444e-18 $lvl1=1 $lvl2=1
CD20 QN:11 qint:10 1.38583e-18 $lvl1=1 $lvl2=3
CD21 QN:5 qint:8 1.34412e-18 $lvl1=2 $lvl2=3
CD22 QN:5 qint:17 1.24208e-18 $lvl1=2 $lvl2=2
CD23 QN:1 qint:10 1.12306e-18 $lvl1=2 $lvl2=3
CD24 QN qint:27 1.11773e-18 $lvl1=1 $lvl2=1
CD25 QN:5 qint:10 9.37848e-19 $lvl1=2 $lvl2=3
CD26 QN:1 qint:17 9.36555e-19 $lvl1=2 $lvl2=2
CD27 QN:12 qint:17 9.06064e-19 $lvl1=1 $lvl2=2
CD28 QN:11 qint:27 8.56858e-19 $lvl1=1 $lvl2=1
CD29 QN:15 qint:17 8.27661e-19 $lvl1=1 $lvl2=2
CD30 QN qint:26 7.52776e-19 $lvl1=1 $lvl2=1
CD31 QN:10 qint 6.82439e-19 $lvl1=2 $lvl2=3
CD32 QN:12 qint:27 5.60116e-19 $lvl1=1 $lvl2=1
CD33 QN:7 qint:10 5.38257e-19 $lvl1=2 $lvl2=3
CD34 Mmp57:d qint:10 4.82755e-19 $lvl1=4 $lvl2=3
CD35 QN qint:8 4.68731e-19 $lvl1=1 $lvl2=3
CD36 Mmn57:d qint:17 3.9386e-19 $lvl1=4 $lvl2=2
CD37 QN:6 qint 1.28398e-16 $lvl1=2 $lvl2=3
CD38 QN:6 qint:17 1.44923e-17 $lvl1=2 $lvl2=2
CD39 QN:11 qint:17 1.31435e-17 $lvl1=1 $lvl2=2
CD40 QN qint:17 9.18173e-18 $lvl1=1 $lvl2=2
CD41 QN:1 qint:8 2.49386e-16 $lvl1=2 $lvl2=3
CD42 QN:6 qint:10 1.1333e-17 $lvl1=2 $lvl2=3
CD43 QN qbint:46 3.0938e-18 $lvl1=1 $lvl2=2
CD44 QN:11 qbint:46 8.31222e-19 $lvl1=1 $lvl2=2
CD45 QN:5 qbint:46 8.03211e-19 $lvl1=2 $lvl2=2
CD46 QN:1 qbint:32 6.6477e-19 $lvl1=2 $lvl2=3
CD47 QN:15 qbint:53 6.11778e-19 $lvl1=1 $lvl2=1
CD48 QN:15 qbint:46 5.96167e-19 $lvl1=1 $lvl2=2
CD49 QN:1 qbint:46 5.92407e-19 $lvl1=2 $lvl2=2
CD50 QN:5 qbint:34 5.51592e-19 $lvl1=2 $lvl2=3
CD51 QN qbint:34 4.99183e-19 $lvl1=1 $lvl2=3
CD52 QN:1 qbint:34 4.72011e-19 $lvl1=2 $lvl2=3
CD53 QN:6 qbint:36 4.55304e-19 $lvl1=2 $lvl2=3
CD54 QN:15 qbint:54 4.13722e-19 $lvl1=1 $lvl2=1
CD55 QN:10 VSS!:1 4.99132e-18 $lvl1=2 $lvl2=2
CD56 QN:12 VSS!:32 4.51954e-18 $lvl1=1 $lvl2=1
CD57 QN:11 VSS!:1 3.93267e-18 $lvl1=1 $lvl2=2
CD58 QN:6 VSS!:12 3.89376e-18 $lvl1=2 $lvl2=2
CD59 QN:12 VSS!:31 3.72939e-18 $lvl1=1 $lvl2=1
CD60 QN:13 VSS!:32 3.65468e-18 $lvl1=1 $lvl2=1
CD61 QN:10 VSS!:12 3.63303e-18 $lvl1=2 $lvl2=2
CD62 QN:12 VSS!:1 3.00585e-18 $lvl1=1 $lvl2=2
CD63 QN:13 VSS!:31 2.67584e-18 $lvl1=1 $lvl2=1
CD64 QN:11 VSS!:32 2.58935e-18 $lvl1=1 $lvl2=1
CD65 QN:7 VSS!:8 2.5512e-18 $lvl1=2 $lvl2=2
CD66 QN:7 VSS!:32 2.09078e-18 $lvl1=2 $lvl2=1
CD67 QN:11 VSS!:31 2.07083e-18 $lvl1=1 $lvl2=1
CD68 QN:10 VSS!:5 2.04873e-18 $lvl1=2 $lvl2=2
CD69 QN:6 VSS!:31 2.04091e-18 $lvl1=2 $lvl2=1
CD70 QN:7 VSS!:31 1.96211e-18 $lvl1=2 $lvl2=1
CD71 QN:6 VSS!:6 1.94879e-18 $lvl1=2 $lvl2=4
CD72 QN:14 VSS!:1 1.79838e-18 $lvl1=1 $lvl2=2
CD73 Mmn57:d VSS!:8 1.74563e-18 $lvl1=4 $lvl2=2
CD74 QN:7 VSS!:12 1.58621e-18 $lvl1=2 $lvl2=2
CD75 QN VSS!:31 1.48417e-18 $lvl1=1 $lvl2=1
CD76 QN:10 VSS!:32 1.29303e-18 $lvl1=2 $lvl2=1
CD77 QN:14 VSS!:5 1.22114e-18 $lvl1=1 $lvl2=2
CD78 QN:13 VSS!:1 1.20136e-18 $lvl1=1 $lvl2=2
CD79 QN:15 VSS!:31 1.13221e-18 $lvl1=1 $lvl2=1
CD80 QN VSS!:32 1.11112e-18 $lvl1=1 $lvl2=1
CD81 QN:12 VSS!:12 1.09678e-18 $lvl1=1 $lvl2=2
CD82 QN:10 VSS!:31 1.06476e-18 $lvl1=2 $lvl2=1
CD83 QN:14 VSS!:12 1.02382e-18 $lvl1=1 $lvl2=2
CD84 QN:7 VSS!:5 9.51481e-19 $lvl1=2 $lvl2=2
CD85 QN:14 VSS!:8 9.45749e-19 $lvl1=1 $lvl2=2
CD86 QN:15 VSS!:32 9.24732e-19 $lvl1=1 $lvl2=1
CD87 QN:11 VSS!:33 7.99923e-19 $lvl1=1 $lvl2=1
CD88 QN:6 VSS!:32 7.95016e-19 $lvl1=2 $lvl2=1
CD89 QN:15 VSS!:33 7.52451e-19 $lvl1=1 $lvl2=1
CD90 QN:12 VSS!:8 6.59528e-19 $lvl1=1 $lvl2=2
CD91 QN:11 VSS!:12 6.12239e-19 $lvl1=1 $lvl2=2
CD92 QN VSS!:33 4.96733e-19 $lvl1=1 $lvl2=1
CD93 QN:6 Mmn57:s 4.93526e-19 $lvl1=2 $lvl2=4
CD94 QN:14 VSS!:33 4.80612e-19 $lvl1=1 $lvl2=1
CD95 QN:12 VSS!:33 4.59287e-19 $lvl1=1 $lvl2=1
CD96 Mmn57:d VSS!:1 3.89329e-19 $lvl1=4 $lvl2=2
CD97 Mmn57:d VSS!:12 3.58312e-19 $lvl1=4 $lvl2=2
CD98 QN:11 VSS!:8 3.53761e-19 $lvl1=1 $lvl2=2
CD99 QN:6 VSS!:5 3.53753e-19 $lvl1=2 $lvl2=2
CD100 QN:7 VSS!:1 1.50622e-17 $lvl1=2 $lvl2=2
CD101 QN:14 VSS!:31 8.75714e-18 $lvl1=1 $lvl2=1
CD102 QN:14 VSS!:32 2.09195e-17 $lvl1=1 $lvl2=1
CD103 QN:6 VSS!:8 9.23404e-18 $lvl1=2 $lvl2=2
CD104 QN:6 VSS!:1 3.8427e-17 $lvl1=2 $lvl2=2
CD105 QN:10 VSS!:8 9.21988e-18 $lvl1=2 $lvl2=2
CD106 QN:1 VDD!:35 5.88624e-18 $lvl1=2 $lvl2=1
CD107 QN:1 VDD!:36 4.23166e-18 $lvl1=2 $lvl2=1
CD108 QN:4 VDD!:33 4.22265e-18 $lvl1=2 $lvl2=2
CD109 QN VDD!:33 4.1248e-18 $lvl1=1 $lvl2=2
CD110 QN:14 VDD! 3.77823e-18 $lvl1=1 $lvl2=1
CD111 QN:1 VDD!:7 3.43639e-18 $lvl1=2 $lvl2=4
CD112 QN:5 VDD! 2.8495e-18 $lvl1=2 $lvl2=1
CD113 QN:15 VDD!:34 2.83781e-18 $lvl1=1 $lvl2=2
CD114 QN:7 VDD! 2.82045e-18 $lvl1=2 $lvl2=1
CD115 QN:13 VDD! 2.47401e-18 $lvl1=1 $lvl2=1
CD116 QN:1 VDD!:28 2.29401e-18 $lvl1=2 $lvl2=2
CD117 QN:15 VDD!:37 1.88432e-18 $lvl1=1 $lvl2=1
CD118 QN:15 VDD!:24 1.86897e-18 $lvl1=1 $lvl2=2
CD119 Mmp57:d VDD!:24 1.44213e-18 $lvl1=4 $lvl2=2
CD120 QN:4 VDD! 1.07612e-18 $lvl1=2 $lvl2=1
CD121 QN VDD!:35 9.70709e-19 $lvl1=1 $lvl2=1
CD122 QN:15 VDD!:28 9.19716e-19 $lvl1=1 $lvl2=2
CD123 QN:10 VDD! 8.84647e-19 $lvl1=2 $lvl2=1
CD124 QN VDD!:37 7.97373e-19 $lvl1=1 $lvl2=1
CD125 QN VDD!:36 7.90961e-19 $lvl1=1 $lvl2=1
CD126 Mmp57:d VDD!:33 6.97894e-19 $lvl1=4 $lvl2=2
CD127 QN:11 VDD!:36 6.72689e-19 $lvl1=1 $lvl2=1
CD128 Mmp57:d VDD!:34 6.02253e-19 $lvl1=4 $lvl2=2
CD129 QN:11 VDD!:35 4.73866e-19 $lvl1=1 $lvl2=1
CD130 QN:4 VDD!:35 4.40018e-19 $lvl1=2 $lvl2=1
CD131 QN:11 VDD!:33 4.28204e-19 $lvl1=1 $lvl2=2
CD132 QN:1 Mmp55:s 4.14444e-19 $lvl1=2 $lvl2=4
CD133 QN:11 VDD!:37 3.89124e-19 $lvl1=1 $lvl2=1
CD134 QN:4 VDD!:36 3.8472e-19 $lvl1=2 $lvl2=1
CD135 QN:1 VDD!:34 9.97403e-18 $lvl1=2 $lvl2=2
CD136 QN:1 VDD!:33 9.76819e-17 $lvl1=2 $lvl2=2
CD137 QN:15 VDD!:35 1.42635e-17 $lvl1=1 $lvl2=1
CD138 QN:5 VDD!:33 7.74066e-18 $lvl1=2 $lvl2=2
CD139 QN:15 VDD! 3.54078e-17 $lvl1=1 $lvl2=1
CD140 QN:12 VDD! 9.42466e-18 $lvl1=1 $lvl2=1
CD141 QN:6 VDD! 1.1776e-17 $lvl1=2 $lvl2=1
CD142 QN:11 VDD! 1.69023e-17 $lvl1=1 $lvl2=1
CD143 QN:1 VDD! 4.53332e-17 $lvl1=2 $lvl2=1
CD144 QN VDD! 2.13899e-17 $lvl1=1 $lvl2=1
CD145 QN:15 VDD!:33 1.86947e-17 $lvl1=1 $lvl2=2
CD146 QN:1 VDD!:24 2.04502e-17 $lvl1=2 $lvl2=2
CD147 QN:15 VDD!:36 2.22518e-17 $lvl1=1 $lvl2=1
ReD42 QN:11 QN:12 0.142544 $metal1  $L=0.325 $W=0.285000 $SI_W=0.285 $TYPE=10 $DIR=1 $LLX=8.585000 $LLY=0.810000 $URX=8.870000 $URY=1.135000 $lvl=1
ReD43 QN:12 QN:13 0.057018 $metal1  $L=0.13 $W=0.285000 $SI_W=0.285 $TYPE=10 $DIR=1 $LLX=8.585000 $LLY=0.680000 $URX=8.870000 $URY=0.810000 $lvl=1
ReD44 QN:13 QN:14 0.105978 $metal1  $L=0.195 $W=0.230000 $SI_W=0.23 $TYPE=10 $DIR=1 $LLX=8.585000 $LLY=0.485000 $URX=8.815000 $URY=0.680000 $lvl=1
ReD45 QN:11 QN 0.442308 $metal1  $L=0.92 $W=0.260000 $SI_W=0.26 $TYPE=10 $DIR=1 $LLX=8.610000 $LLY=1.135000 $URX=8.870000 $URY=2.055000 $lvl=1
ReD46 QN QN:15 0.407789 $metal1  $L=0.89 $W=0.260000 $SI_W=0.26 $TYPE=10 $DIR=1 $LLX=8.610000 $LLY=2.055000 $URX=8.870000 $URY=2.945000 $lvl=1
ReD47 QN:15 QN:16 0.221491 $metal1  $L=0.505 $W=0.285000 $SI_W=0.285 $TYPE=10 $DIR=1 $LLX=8.585000 $LLY=2.945000 $URX=8.870000 $URY=3.450000 $lvl=1
RfD48 QN:1 QN:3 54.964703 $li  $L=0.73 $W=0.170000 $SI_W=0.17 $TYPE=10 $DIR=1 $LLX=8.615000 $LLY=3.015000 $URX=8.785000 $URY=3.745000 $lvl=2
RfD49 QN:3 QN:4 1.006742 $li  $L=0.07 $W=0.170000 $SI_W=0.89 $TYPE=10 $DIR=1 $LLX=8.615000 $LLY=2.945000 $URX=8.785000 $URY=3.015000 $lvl=2
RfD50 QN:4 QN:5 49.694118 $li  $L=0.66 $W=0.170000 $SI_W=0.17 $TYPE=10 $DIR=1 $LLX=8.615000 $LLY=2.285000 $URX=8.785000 $URY=2.945000 $lvl=2
RfD51 QN:6 QN:7 25.976471 $li  $L=0.345 $W=0.170000 $SI_W=0.17 $TYPE=10 $DIR=1 $LLX=8.615000 $LLY=0.810000 $URX=8.785000 $URY=1.155000 $lvl=2