*
*|DSPF 1.5
*
*|DATE "Wed Jan  8 22:32:51 2025"
*|VENDOR "Cadence Design Systems"
*|PROGRAM "Cadence Quantus Extraction"
*|VERSION "22.1.0-p089 Linux 64 bit - (Thu Jan 19 11:47:08 PST 2023)"
*|DESIGN DFFRX4_HS
*|DIVIDER /
*|DELIMITER :
*|DeviceFingerDelim "@"
*|BUSBIT []
*|GLOBAL_TEMPERATURE 25
*|OPERATING_TEMPERATURE 25

** *VIA_COVERAGE_CODES
** *index FF FS FP FU SF SS SP SU PF PS PP PU UF US UP UU X_by_Y
** * "FF" stands for Full landing and Full coverage
** *0 0 0 0 0 0 0 0 0 0 0 0 0 0 0 0 0
** *1 0 0 0 0 0 0 0 0 0 0 0 0 0 0 0 1 1x1
** *2 0 0 0 0 0 0 0 0 0 0 0 0 0 0 1 0 1x1
** *3 0 0 0 0 0 0 0 0 0 0 0 0 0 1 0 0 1x1
** *4 0 0 0 0 0 0 0 0 0 0 0 0 1 0 0 0 1x1
** *5 0 0 0 0 0 0 0 0 0 0 0 1 0 0 0 0 1x1
** *6 0 0 0 0 0 0 0 0 0 0 1 0 0 0 0 0 1x1
** *7 0 0 0 0 0 0 0 0 0 1 0 0 0 0 0 0 1x1
** *8 0 0 0 0 0 0 0 0 1 0 0 0 0 0 0 0 1x1
** *9 0 0 0 0 0 0 0 1 0 0 0 0 0 0 0 0 1x1
** *10 0 0 0 0 0 0 1 0 0 0 0 0 0 0 0 0 1x1
** *11 0 0 0 0 0 1 0 0 0 0 0 0 0 0 0 0 1x1
** *12 0 0 0 0 1 0 0 0 0 0 0 0 0 0 0 0 1x1
** *13 0 0 0 1 0 0 0 0 0 0 0 0 0 0 0 0 1x1
** *14 0 0 1 0 0 0 0 0 0 0 0 0 0 0 0 0 1x1
** *15 0 1 0 0 0 0 0 0 0 0 0 0 0 0 0 0 1x1
** *16 1 0 0 0 0 0 0 0 0 0 0 0 0 0 0 0 1x1

** *RESISTOR_TYPES
** *1 SHORTING_ELEMENT
** *2 PRES_NG
** *3 PRES_PG
** *4 PRES_NF
** *5 PRES_PF
** *6 TCN_NDIFF
** *7 TCN_PDIFF
** *8 TCN_NFIELD
** *9 TCN_PFIELD
** *10 QUALITY_EXTRACTED
** *11 GCNLAND
** *12 TCNLAND
** *13 DUMMY
** *14 RSD
** *15 BRIDGE

** *RESISTOR_CURRENT_DIRECTION
** *0 HORIZONTAL
** *1 VERTICAL
** *2 45 DEGREE

** QRC_TECH_DIR /vols/wfo_devel/projects/reference_SKY130/tech/sky130_release_0.0.4/quantus/extraction/typical 
** HIERARCHICAL_SPLIT_PINS_DELIMITER '%'
** caps2d version: 10
*
.SUBCKT  DFFRX4_HS CK D Q QN RN
*
*Net Section
*
*|GROUND_NET VSS!
*
*LAYER_MAP
*0 none
*1 metal1
*2 li
*3 poly
*4 diff
*5 licon_diff
*6 mcon
*7 licon
*8 FOX

*|NET n40 2.69737e-16
*|I (Mmn50:d Mmn50 d X 0 5.2195 0.6075) // $llx=5.2195 $lly=0.6075 $urx=5.2195 $ury=0.6075 $lvl=4
*|I (Mmn51:s Mmn51 s X 0 4.9405 0.6075) // $llx=4.9405 $lly=0.6075 $urx=4.9405 $ury=0.6075 $lvl=4
*|S (n40 5.0800 0.8195) // $llx=5.0800 $lly=0.8195 $urx=5.0800 $ury=0.8195 $lvl=2
*|S (n40:3 5.0800 0.6050) // $llx=5.0800 $lly=0.6050 $urx=5.0800 $ury=0.6050 $lvl=2
*|S (n40:4 5.0800 0.3950) // $llx=5.0800 $lly=0.3950 $urx=5.0800 $ury=0.3950 $lvl=2
CQ1 Mmn50:d VSS! 1.66453e-18 $lvl=4
CQ2 n40:3 VSS! 4.95929e-18 $lvl=2
CQ3 n40:4 VSS! 2.06904e-18 $lvl=2
CQ4 n40 VSS! 2.09375e-18 $lvl=2
CQ5 n40:3 VSS!:20 1.33898e-18 $lvl1=2 $lvl2=2
CQ6 n40:3 VSS!:22 9.56371e-19 $lvl1=2 $lvl2=2
CQ7 n40:3 VSS!:8 7.04117e-19 $lvl1=2 $lvl2=4
CQ8 n40 VSS!:48 6.77712e-19 $lvl1=2 $lvl2=1
CQ9 Mmn50:d VSS!:36 4.75887e-19 $lvl1=4 $lvl2=2
CQ10 n40:4 VSS!:22 4.71499e-19 $lvl1=2 $lvl2=2
CQ11 n40 VSS!:36 3.77109e-18 $lvl1=2 $lvl2=2
CQ12 n40:3 VSS!:36 2.16415e-17 $lvl1=2 $lvl2=2
CQ13 n40:3 VSS!:48 3.63627e-18 $lvl1=2 $lvl2=1
CQ14 n40:3 VSS!:19 9.44268e-18 $lvl1=2 $lvl2=2
CQ15 n40:4 VSS!:36 3.81005e-18 $lvl1=2 $lvl2=2
CQ16 n40:4 VSS!:48 2.53655e-18 $lvl1=2 $lvl2=1
CQ17 Mmn50:d VSS!:19 1.61553e-18 $lvl1=4 $lvl2=2
CQ18 n40:4 VSS!:20 1.93414e-18 $lvl1=2 $lvl2=2
CQ19 n40:4 VSS!:19 1.10223e-17 $lvl1=2 $lvl2=2
RfQ626 n40 n40:3 16.150589 $li  $L=0.2145 $W=0.170000 $SI_W=0.17 $TYPE=10 $DIR=1 $LLX=4.995000 $LLY=0.605000 $URX=5.165000 $URY=0.819500 $lvl=2
RfQ627 n40:3 n40:4 15.811765 $li  $L=0.21 $W=0.170000 $SI_W=0.17 $TYPE=10 $DIR=1 $LLX=4.995000 $LLY=0.395000 $URX=5.165000 $URY=0.605000 $lvl=2
RhQ628 Mmn50:d n40:3 15.000000 $licon_diff  $L=0.17 $W=0.17 $A=0.0289 $VC=0 $SAVL=0 $SAVC=0 $SI_A=0.0289 $COVER_DIR=0 $LLX=0.000000 $LLY=0.000000 $URX=0.170000 $URY=0.170000 $lvl=5
RmwQ629 Mmn51:s Mmn50:d 0.001000 $diff $W=1000000 $SI_W=1000000 $TYPE=1 $DIR=0
*
*|NET n41 2.99116e-16
*|I (Mmp50:d Mmp50 d X 0 5.2195 3.3550) // $llx=5.2195 $lly=3.3550 $urx=5.2195 $ury=3.3550 $lvl=4
*|I (Mmp51:s Mmp51 s X 0 4.9405 3.3550) // $llx=4.9405 $lly=3.3550 $urx=4.9405 $ury=3.3550 $lvl=4
*|S (n41 5.0800 3.5495) // $llx=5.0800 $lly=3.5495 $urx=5.0800 $ury=3.5495 $lvl=2
*|S (n41:3 5.0800 3.2350) // $llx=5.0800 $lly=3.2350 $urx=5.0800 $ury=3.2350 $lvl=2
*|S (n41:4 5.0800 2.9250) // $llx=5.0800 $lly=2.9250 $urx=5.0800 $ury=2.9250 $lvl=2
CQ20 Mmp50:d VSS! 1.07074e-18 $lvl=4
CQ21 n41:3 VSS! 3.63419e-18 $lvl=2
CQ22 n41:4 VSS! 2.5393e-18 $lvl=2
CQ23 n41 VSS! 2.51658e-18 $lvl=2
RfQ630 n41 n41:3 23.680000 $li  $L=0.3145 $W=0.170000 $SI_W=0.17 $TYPE=10 $DIR=1 $LLX=4.995000 $LLY=3.235000 $URX=5.165000 $URY=3.549500 $lvl=2
RfQ631 n41:3 n41:4 23.341177 $li  $L=0.31 $W=0.170000 $SI_W=0.17 $TYPE=10 $DIR=1 $LLX=4.995000 $LLY=2.925000 $URX=5.165000 $URY=3.235000 $lvl=2
Rh_2_Q632 Mmp50:d n41:3 15.000000 $licon_diff  $L=0.17 $W=0.17 $A=0.0289 $VC=0 $SAVL=0 $SAVC=0 $SI_A=0.0289 $COVER_DIR=0 $LLX=0.000000 $LLY=0.000000 $URX=0.170000 $URY=0.170000 $lvl=5
RmwQ633 Mmp51:s Mmp50:d 0.001000 $diff $W=1000000 $SI_W=1000000 $TYPE=1 $DIR=0
*
*|NET qint 5.16302e-15
*|I (Mmp57@2:g Mmp57@2 g X 0 10.6350 3.0150) // $llx=10.6350 $lly=3.0150 $urx=10.6350 $ury=3.0150 $lvl=3
*|I (Mmp57:g Mmp57 g X 0 11.0650 3.0150) // $llx=11.0650 $lly=3.0150 $urx=11.0650 $ury=3.0150 $lvl=3
*|I (Mmp57@3:g Mmp57@3 g X 0 11.4950 3.0150) // $llx=11.4950 $lly=3.0150 $urx=11.4950 $ury=3.0150 $lvl=3
*|I (Mmp57@1:g Mmp57@1 g X 0 11.9250 3.0150) // $llx=11.9250 $lly=3.0150 $urx=11.9250 $ury=3.0150 $lvl=3
*|I (Mmp56:d Mmp56 d X 0 8.4095 3.0150) // $llx=8.4095 $lly=3.0150 $urx=8.4095 $ury=3.0150 $lvl=4
*|I (Mmn57@1:g Mmn57@1 g X 0 10.6350 0.7750) // $llx=10.6350 $lly=0.7750 $urx=10.6350 $ury=0.7750 $lvl=3
*|I (Mmn57@3:g Mmn57@3 g X 0 11.0650 0.7750) // $llx=11.0650 $lly=0.7750 $urx=11.0650 $ury=0.7750 $lvl=3
*|I (Mmn57:g Mmn57 g X 0 11.4950 0.7750) // $llx=11.4950 $lly=0.7750 $urx=11.4950 $ury=0.7750 $lvl=3
*|I (Mmn57@2:g Mmn57@2 g X 0 11.9250 0.7750) // $llx=11.9250 $lly=0.7750 $urx=11.9250 $ury=0.7750 $lvl=3
*|I (Mmn56:d Mmn56 d X 0 8.4095 0.7750) // $llx=8.4095 $lly=0.7750 $urx=8.4095 $ury=0.7750 $lvl=4
*|S (qint 10.6350 0.7750) // $llx=10.6350 $lly=0.7750 $urx=10.6350 $ury=0.7750 $lvl=3
*|S (qint:29 11.9250 3.8950) // $llx=11.9250 $lly=3.8950 $urx=11.9250 $ury=3.8950 $lvl=3
*|S (qint:30 11.9250 1.4350) // $llx=11.9250 $lly=1.4350 $urx=11.9250 $ury=1.4350 $lvl=3
*|S (qint:31 11.4950 1.4350) // $llx=11.4950 $lly=1.4350 $urx=11.4950 $ury=1.4350 $lvl=3
*|S (qint:32 11.2800 1.4350) // $llx=11.2800 $lly=1.4350 $urx=11.2800 $ury=1.4350 $lvl=3
*|S (qint:33 11.0650 1.4350) // $llx=11.0650 $lly=1.4350 $urx=11.0650 $ury=1.4350 $lvl=3
*|S (qint:34 10.6350 1.4350) // $llx=10.6350 $lly=1.4350 $urx=10.6350 $ury=1.4350 $lvl=3
*|S (qint:35 11.9250 0.2450) // $llx=11.9250 $lly=0.2450 $urx=11.9250 $ury=0.2450 $lvl=3
*|S (qint:36 11.4950 0.2450) // $llx=11.4950 $lly=0.2450 $urx=11.4950 $ury=0.2450 $lvl=3
*|S (qint:37 11.4950 3.8950) // $llx=11.4950 $lly=3.8950 $urx=11.4950 $ury=3.8950 $lvl=3
*|S (qint:38 11.0650 0.2450) // $llx=11.0650 $lly=0.2450 $urx=11.0650 $ury=0.2450 $lvl=3
*|S (qint:39 11.0650 3.8950) // $llx=11.0650 $lly=3.8950 $urx=11.0650 $ury=3.8950 $lvl=3
*|S (qint:40 10.6350 3.8950) // $llx=10.6350 $lly=3.8950 $urx=10.6350 $ury=3.8950 $lvl=3
*|S (qint:41 10.6350 0.2450) // $llx=10.6350 $lly=0.2450 $urx=10.6350 $ury=0.2450 $lvl=3
*|S (qint:42 8.2700 3.7450) // $llx=8.2700 $lly=3.7450 $urx=8.2700 $ury=3.7450 $lvl=2
*|S (qint:44 8.2700 3.0150) // $llx=8.2700 $lly=3.0150 $urx=8.2700 $ury=3.0150 $lvl=2
*|S (qint:45 8.2700 2.9450) // $llx=8.2700 $lly=2.9450 $urx=8.2700 $ury=2.9450 $lvl=2
*|S (qint:46 8.2700 2.2850) // $llx=8.2700 $lly=2.2850 $urx=8.2700 $ury=2.2850 $lvl=2
*|S (qint:47 8.2700 1.1550) // $llx=8.2700 $lly=1.1550 $urx=8.2700 $ury=1.1550 $lvl=2
*|S (qint:48 8.2700 0.8100) // $llx=8.2700 $lly=0.8100 $urx=8.2700 $ury=0.8100 $lvl=2
*|S (qint:50 8.2700 0.7750) // $llx=8.2700 $lly=0.7750 $urx=8.2700 $ury=0.7750 $lvl=2
*|S (qint:51 8.2700 0.3950) // $llx=8.2700 $lly=0.3950 $urx=8.2700 $ury=0.3950 $lvl=2
*|S (qint:52 11.8750 1.4350) // $llx=11.8750 $lly=1.4350 $urx=11.8750 $ury=1.4350 $lvl=2
*|S (qint:53 11.2800 1.4350) // $llx=11.2800 $lly=1.4350 $urx=11.2800 $ury=1.4350 $lvl=2
*|S (qint:54 8.2700 1.4350) // $llx=8.2700 $lly=1.4350 $urx=8.2700 $ury=1.4350 $lvl=2
*|S (qint:55 8.1050 1.4350) // $llx=8.1050 $lly=1.4350 $urx=8.1050 $ury=1.4350 $lvl=2
*|S (qint:56 8.2700 3.4500) // $llx=8.2700 $lly=3.4500 $urx=8.2700 $ury=3.4500 $lvl=1
*|S (qint:57 8.2700 2.9450) // $llx=8.2700 $lly=2.9450 $urx=8.2700 $ury=2.9450 $lvl=1
*|S (qint:58 8.2700 1.4350) // $llx=8.2700 $lly=1.4350 $urx=8.2700 $ury=1.4350 $lvl=1
*|S (qint:59 8.2700 0.8100) // $llx=8.2700 $lly=0.8100 $urx=8.2700 $ury=0.8100 $lvl=1
*|S (qint:60 8.2700 0.4850) // $llx=8.2700 $lly=0.4850 $urx=8.2700 $ury=0.4850 $lvl=1
CO1 Mmn56:d VSS! 2.17746e-18 $lvl=4
CO2 Mmn57@2:g VSS! 1.97298e-18 $lvl=3
CO3 Mmn57:g VSS! 2.60021e-18 $lvl=3
CO4 Mmp56:d VSS! 2.74009e-18 $lvl=4
CO5 qint:59 VSS! 1.10574e-17 $lvl=1
CO6 qint:58 VSS! 1.18215e-17 $lvl=1
CO7 qint:57 VSS! 1.51692e-17 $lvl=1
CO8 qint:56 VSS! 6.39416e-18 $lvl=1
CO9 qint:60 VSS! 5.26808e-18 $lvl=1
CO10 qint:29 VSS! 3.02927e-18 $lvl=3
CO11 qint:37 VSS! 4.42464e-18 $lvl=3
CO12 qint:39 VSS! 3.02851e-18 $lvl=3
CO13 qint:40 VSS! 3.73972e-18 $lvl=3
CO14 qint:38 VSS! 2.13109e-18 $lvl=3
CO15 qint:53 VSS! 1.52443e-17 $lvl=2
CO16 qint:55 VSS! 1.45404e-17 $lvl=2
CO17 qint:47 VSS! 1.99858e-17 $lvl=2
CO18 qint:51 VSS! 2.29939e-18 $lvl=2
CO19 qint:42 VSS! 9.12379e-18 $lvl=2
CO20 qint:46 VSS! 4.06887e-18 $lvl=2
CO21 qint:48 VSS! 3.02298e-18 $lvl=2
CO22 qint:54 VSS! 3.18999e-18 $lvl=2
CO23 qint:45 VSS! 3.50091e-18 $lvl=2
CO24 qint:32 VSS! 4.28412e-17 $lvl=3
CO25 qint VSS! 3.20062e-18 $lvl=3
CO26 qint VSS!:7 7.93865e-18 $lvl1=3 $lvl2=2
CO27 qint:38 VSS!:5 7.60442e-18 $lvl1=3 $lvl2=2
CO28 qint:59 VSS!:30 7.13019e-18 $lvl1=1 $lvl2=2
CO29 Mmn57:g VSS!:5 7.01906e-18 $lvl1=3 $lvl2=2
CO30 Mmn57@2:g VSS!:4 6.58788e-18 $lvl1=3 $lvl2=2
CO31 qint:32 VSS!:1 5.8746e-18 $lvl1=3 $lvl2=2
CO32 qint:53 VSS!:1 5.8703e-18 $lvl1=2 $lvl2=2
CO33 qint:48 VSS!:30 4.60843e-18 $lvl1=2 $lvl2=2
CO34 qint:51 VSS!:30 4.60015e-18 $lvl1=2 $lvl2=2
CO35 Mmn56:d VSS!:17 3.93874e-18 $lvl1=4 $lvl2=2
CO36 qint:32 VSS!:16 3.82285e-18 $lvl1=3 $lvl2=2
CO37 qint:58 VSS!:47 3.52618e-18 $lvl1=1 $lvl2=1
CO38 qint:48 VSS!:17 2.6288e-18 $lvl1=2 $lvl2=2
CO39 qint:51 VSS!:7 2.59125e-18 $lvl1=2 $lvl2=2
CO40 qint:32 Mmn57@3:s 2.49391e-18 $lvl1=3 $lvl2=4
CO41 qint:48 VSS!:47 2.2727e-18 $lvl1=2 $lvl2=1
CO42 qint:51 VSS!:47 2.09422e-18 $lvl1=2 $lvl2=1
CO43 qint:58 VSS!:30 1.99316e-18 $lvl1=1 $lvl2=2
CO44 qint:57 VSS!:47 1.58886e-18 $lvl1=1 $lvl2=1
CO45 Mmn57@2:g VSS!:5 1.33456e-18 $lvl1=3 $lvl2=2
CO46 Mmn56:d VSS!:30 1.30505e-18 $lvl1=4 $lvl2=2
CO47 qint:60 VSS!:7 1.25849e-18 $lvl1=1 $lvl2=2
CO48 qint:53 VSS!:27 1.24628e-17 $lvl1=2 $lvl2=2
CO49 Mmn57@2:g VSS!:1 1.27388e-16 $lvl1=3 $lvl2=2
CO50 qint:47 VSS!:17 1.14132e-17 $lvl1=2 $lvl2=2
CO51 qint:53 VSS!:16 2.36609e-17 $lvl1=2 $lvl2=2
CO52 qint:53 VSS!:13 1.73712e-17 $lvl1=2 $lvl2=2
CO53 qint:51 VSS!:17 1.36147e-17 $lvl1=2 $lvl2=2
CO54 qint:55 VSS!:30 2.23911e-17 $lvl1=2 $lvl2=2
CO55 qint:55 VSS!:27 1.25385e-17 $lvl1=2 $lvl2=2
CO56 qint:47 VSS!:30 4.66207e-17 $lvl1=2 $lvl2=2
CO57 qint:59 VSS!:47 1.86651e-17 $lvl1=1 $lvl2=1
CO58 qint:32 VSS!:13 1.79047e-17 $lvl1=3 $lvl2=2
CO59 Mmn57:g VSS!:13 1.21158e-16 $lvl1=3 $lvl2=2
CO60 qint VSS!:16 1.24532e-16 $lvl1=3 $lvl2=2
CO61 qint:60 VSS!:47 2.13432e-17 $lvl1=1 $lvl2=1
CO62 qint:38 VSS!:13 1.25672e-16 $lvl1=3 $lvl2=2
ReO570 qint:56 qint:57 0.274457 $metal1  $L=0.505 $W=0.230000 $SI_W=0.23 $TYPE=10 $DIR=1 $LLX=8.155000 $LLY=2.945000 $URX=8.385000 $URY=3.450000 $lvl=1
ReO571 qint:57 qint:58 0.820652 $metal1  $L=1.51 $W=0.230000 $SI_W=0.23 $TYPE=10 $DIR=1 $LLX=8.155000 $LLY=1.435000 $URX=8.385000 $URY=2.945000 $lvl=1
ReO572 qint:58 qint:59 0.339674 $metal1  $L=0.625 $W=0.230000 $SI_W=0.23 $TYPE=10 $DIR=1 $LLX=8.155000 $LLY=0.810000 $URX=8.385000 $URY=1.435000 $lvl=1
ReO573 qint:59 qint:60 0.176630 $metal1  $L=0.325 $W=0.230000 $SI_W=0.23 $TYPE=10 $DIR=1 $LLX=8.155000 $LLY=0.485000 $URX=8.385000 $URY=0.810000 $lvl=1
RfO574 qint:42 qint:44 54.964703 $li  $L=0.73 $W=0.170000 $SI_W=0.17 $TYPE=10 $DIR=1 $LLX=8.185000 $LLY=3.015000 $URX=8.355000 $URY=3.745000 $lvl=2
RfO575 qint:44 qint:45 1.006742 $li  $L=0.07 $W=0.170000 $SI_W=0.89 $TYPE=10 $DIR=1 $LLX=8.185000 $LLY=2.945000 $URX=8.355000 $URY=3.015000 $lvl=2
RfO576 qint:45 qint:46 49.694118 $li  $L=0.66 $W=0.170000 $SI_W=0.17 $TYPE=10 $DIR=1 $LLX=8.185000 $LLY=2.285000 $URX=8.355000 $URY=2.945000 $lvl=2
RfO577 qint:47 qint:48 25.976471 $li  $L=0.345 $W=0.170000 $SI_W=0.17 $TYPE=10 $DIR=1 $LLX=8.185000 $LLY=0.810000 $URX=8.355000 $URY=1.155000 $lvl=2
RfO578 qint:48 qint:50 0.923711 $li  $L=0.035 $W=0.170000 $SI_W=0.485 $TYPE=10 $DIR=1 $LLX=8.185000 $LLY=0.775000 $URX=8.355000 $URY=0.810000 $lvl=2
RfO579 qint:50 qint:51 28.611765 $li  $L=0.38 $W=0.170000 $SI_W=0.17 $TYPE=10 $DIR=1 $LLX=8.185000 $LLY=0.395000 $URX=8.355000 $URY=0.775000 $lvl=2
RfO580 qint:52 qint:53 44.799999 $li  $L=0.595 $W=0.170000 $SI_W=0.17 $TYPE=10 $DIR=0 $LLX=11.280000 $LLY=1.350000 $URX=11.875000 $URY=1.520000 $lvl=2
RfO581 qint:53 qint:54 226.635300 $li  $L=3.01 $W=0.170000 $SI_W=0.17 $TYPE=10 $DIR=0 $LLX=8.270000 $LLY=1.350000 $URX=11.280000 $URY=1.520000 $lvl=2
RfO582 qint:54 qint:55 12.423529 $li  $L=0.165 $W=0.170000 $SI_W=0.17 $TYPE=10 $DIR=0 $LLX=8.105000 $LLY=1.350000 $URX=8.270000 $URY=1.520000 $lvl=2
RgO583 qint:29 Mmp57@1:g 282.773346 $poly  $L=0.88 $W=0.150000 $SI_W=0.15 $TYPE=10 $DIR=1 $LLX=11.850000 $LLY=3.015000 $URX=12.000000 $URY=3.895000 $lvl=3
RgO584 Mmp57@1:g qint:30 507.626343 $poly  $L=1.57975 $W=0.150000 $SI_W=0.15 $TYPE=10 $DIR=1 $LLX=11.850000 $LLY=1.435000 $URX=12.000000 $URY=3.015000 $lvl=3
RgO585 qint:30 qint:31 76.762962 $poly  $L=0.43 $W=0.270000 $SI_W=0.27 $TYPE=10 $DIR=0 $LLX=11.495000 $LLY=1.300000 $URX=11.925000 $URY=1.570000 $lvl=3
RgO586 qint:31 qint:32 38.426109 $poly  $L=0.21525 $W=0.270000 $SI_W=0.27 $TYPE=10 $DIR=0 $LLX=11.280000 $LLY=1.300000 $URX=11.495000 $URY=1.570000 $lvl=3
RgO587 qint:32 qint:33 38.336849 $poly  $L=0.21475 $W=0.270000 $SI_W=0.27 $TYPE=10 $DIR=0 $LLX=11.065000 $LLY=1.300000 $URX=11.280000 $URY=1.570000 $lvl=3
RgO588 qint:33 qint:34 76.762962 $poly  $L=0.43 $W=0.270000 $SI_W=0.27 $TYPE=10 $DIR=0 $LLX=10.635000 $LLY=1.300000 $URX=11.065000 $URY=1.570000 $lvl=3
RgO589 qint:34 qint 212.160324 $poly  $L=0.66025 $W=0.150000 $SI_W=0.15 $TYPE=10 $DIR=1 $LLX=10.560000 $LLY=0.775000 $URX=10.710000 $URY=1.435000 $lvl=3
RgO590 qint:30 Mmn57@2:g 212.160324 $poly  $L=0.66025 $W=0.150000 $SI_W=0.15 $TYPE=10 $DIR=1 $LLX=11.850000 $LLY=0.775000 $URX=12.000000 $URY=1.435000 $lvl=3
RgO591 Mmn57@2:g qint:35 170.306671 $poly  $L=0.53 $W=0.150000 $SI_W=0.15 $TYPE=10 $DIR=1 $LLX=11.850000 $LLY=0.245000 $URX=12.000000 $URY=0.775000 $lvl=3
RgO592 qint:31 Mmn57:g 192.844620 $poly  $L=0.66025 $W=0.150000 $SI_W=0.15 $TYPE=10 $DIR=1 $LLX=11.420000 $LLY=0.775000 $URX=11.570000 $URY=1.435000 $lvl=3
RgO593 Mmn57:g qint:36 170.306671 $poly  $L=0.53 $W=0.150000 $SI_W=0.15 $TYPE=10 $DIR=1 $LLX=11.420000 $LLY=0.245000 $URX=11.570000 $URY=0.775000 $lvl=3
RgO594 qint:31 Mmp57@3:g 488.382050 $poly  $L=1.57975 $W=0.150000 $SI_W=0.15 $TYPE=10 $DIR=1 $LLX=11.420000 $LLY=1.435000 $URX=11.570000 $URY=3.015000 $lvl=3
RgO595 Mmp57@3:g qint:37 282.773346 $poly  $L=0.88 $W=0.150000 $SI_W=0.15 $TYPE=10 $DIR=1 $LLX=11.420000 $LLY=3.015000 $URX=11.570000 $URY=3.895000 $lvl=3
RgO596 qint:33 Mmn57@3:g 192.844620 $poly  $L=0.66025 $W=0.150000 $SI_W=0.15 $TYPE=10 $DIR=1 $LLX=10.990000 $LLY=0.775000 $URX=11.140000 $URY=1.435000 $lvl=3
RgO597 Mmn57@3:g qint:38 170.306671 $poly  $L=0.53 $W=0.150000 $SI_W=0.15 $TYPE=10 $DIR=1 $LLX=10.990000 $LLY=0.245000 $URX=11.140000 $URY=0.775000 $lvl=3
RgO598 qint:33 Mmp57:g 488.382050 $poly  $L=1.57975 $W=0.150000 $SI_W=0.15 $TYPE=10 $DIR=1 $LLX=10.990000 $LLY=1.435000 $URX=11.140000 $URY=3.015000 $lvl=3
RgO599 Mmp57:g qint:39 282.773346 $poly  $L=0.88 $W=0.150000 $SI_W=0.15 $TYPE=10 $DIR=1 $LLX=10.990000 $LLY=3.015000 $URX=11.140000 $URY=3.895000 $lvl=3
RgO600 qint:34 Mmp57@2:g 507.626343 $poly  $L=1.57975 $W=0.150000 $SI_W=0.15 $TYPE=10 $DIR=1 $LLX=10.560000 $LLY=1.435000 $URX=10.710000 $URY=3.015000 $lvl=3
RgO601 Mmp57@2:g qint:40 282.773346 $poly  $L=0.88 $W=0.150000 $SI_W=0.15 $TYPE=10 $DIR=1 $LLX=10.560000 $LLY=3.015000 $URX=10.710000 $URY=3.895000 $lvl=3
RgO602 qint qint:41 170.306671 $poly  $L=0.53 $W=0.150000 $SI_W=0.15 $TYPE=10 $DIR=1 $LLX=10.560000 $LLY=0.245000 $URX=10.710000 $URY=0.775000 $lvl=3
RhO603 Mmn56:d qint:50 7.500000 $licon_diff  $A=0.0578 $VC=0 $SAVL=0 $SAVC=0 $SI_A=0.0578 $COVER_DIR=0 $LLX=0.000000 $LLY=0.000000 $URX=-0.057800 $URY=-2.000000 $lvl=5
Rh_2_O604 Mmp56:d qint:44 3.750000 $licon_diff  $A=0.1156 $VC=0 $SAVL=0 $SAVC=0 $SI_A=0.1156 $COVER_DIR=0 $LLX=0.000000 $LLY=0.000000 $URX=-0.115600 $URY=-4.000000 $lvl=5
RjO605 qint:45 qint:57 50.666668 $mcon  $A=0.0867 $VC=0 $SAVL=0 $SAVC=0 $SI_A=0.0867 $COVER_DIR=0 $LLX=0.000000 $LLY=0.000000 $URX=-0.086700 $URY=-3.000000 $lvl=6
RjO606 qint:54 qint:58 152.000000 $mcon  $L=0.17 $W=0.17 $A=0.0289 $VC=0 $SAVL=0 $SAVC=0 $SI_A=0.0289 $COVER_DIR=0 $LLX=0.000000 $LLY=0.000000 $URX=0.170000 $URY=0.170000 $lvl=6
RjO607 qint:48 qint:59 76.000000 $mcon  $A=0.0578 $VC=0 $SAVL=0 $SAVC=0 $SI_A=0.0578 $COVER_DIR=0 $LLX=0.000000 $LLY=0.000000 $URX=-0.057800 $URY=-2.000000 $lvl=6
RiO608 qint:32 qint:53 5.000000 $licon  $A=0.0867 $VC=0 $SAVL=0 $SAVC=0 $SI_A=0.0867 $COVER_DIR=0 $LLX=0.000000 $LLY=0.000000 $URX=-0.086700 $URY=-3.000000 $lvl=7
RmwO609 Mmn57@1:g qint 0.001000 $poly $W=1000000 $SI_W=1000000 $TYPE=1 $DIR=0
*
*|NET QN 3.29115e-15
*|P (QN X 0 11.9750 2.3200) // $llx=11.9750 $lly=2.3200 $urx=11.9750 $ury=2.3200 $lvl=1
*|I (Mmp57@2:d Mmp57@2 d X 0 10.7105 3.0150) // $llx=10.7105 $lly=3.0150 $urx=10.7105 $ury=3.0150 $lvl=4
*|I (Mmp57:d Mmp57 d X 0 10.9895 3.0150) // $llx=10.9895 $lly=3.0150 $urx=10.9895 $ury=3.0150 $lvl=4
*|I (Mmp57@3:d Mmp57@3 d X 0 11.5705 3.0150) // $llx=11.5705 $lly=3.0150 $urx=11.5705 $ury=3.0150 $lvl=4
*|I (Mmp57@1:d Mmp57@1 d X 0 11.8495 3.0150) // $llx=11.8495 $lly=3.0150 $urx=11.8495 $ury=3.0150 $lvl=4
*|I (Mmn57@1:d Mmn57@1 d X 0 10.7105 0.7750) // $llx=10.7105 $lly=0.7750 $urx=10.7105 $ury=0.7750 $lvl=4
*|I (Mmn57@3:d Mmn57@3 d X 0 10.9895 0.7750) // $llx=10.9895 $lly=0.7750 $urx=10.9895 $ury=0.7750 $lvl=4
*|I (Mmn57:d Mmn57 d X 0 11.5705 0.7750) // $llx=11.5705 $lly=0.7750 $urx=11.5705 $ury=0.7750 $lvl=4
*|I (Mmn57@2:d Mmn57@2 d X 0 11.8495 0.7750) // $llx=11.8495 $lly=0.7750 $urx=11.8495 $ury=0.7750 $lvl=4
*|S (QN:1 10.8500 3.7450) // $llx=10.8500 $lly=3.7450 $urx=10.8500 $ury=3.7450 $lvl=2
*|S (QN:3 10.8500 3.0150) // $llx=10.8500 $lly=3.0150 $urx=10.8500 $ury=3.0150 $lvl=2
*|S (QN:4 10.8500 2.9450) // $llx=10.8500 $lly=2.9450 $urx=10.8500 $ury=2.9450 $lvl=2
*|S (QN:5 10.8500 2.2850) // $llx=10.8500 $lly=2.2850 $urx=10.8500 $ury=2.2850 $lvl=2
*|S (QN:6 10.8500 1.1550) // $llx=10.8500 $lly=1.1550 $urx=10.8500 $ury=1.1550 $lvl=2
*|S (QN:7 10.8500 0.8100) // $llx=10.8500 $lly=0.8100 $urx=10.8500 $ury=0.8100 $lvl=2
*|S (QN:9 10.8500 0.7750) // $llx=10.8500 $lly=0.7750 $urx=10.8500 $ury=0.7750 $lvl=2
*|S (QN:10 10.8500 0.3950) // $llx=10.8500 $lly=0.3950 $urx=10.8500 $ury=0.3950 $lvl=2
*|S (QN:11 11.7100 3.7450) // $llx=11.7100 $lly=3.7450 $urx=11.7100 $ury=3.7450 $lvl=2
*|S (QN:13 11.7100 3.0150) // $llx=11.7100 $lly=3.0150 $urx=11.7100 $ury=3.0150 $lvl=2
*|S (QN:14 11.7100 2.9450) // $llx=11.7100 $lly=2.9450 $urx=11.7100 $ury=2.9450 $lvl=2
*|S (QN:15 11.7100 2.2850) // $llx=11.7100 $lly=2.2850 $urx=11.7100 $ury=2.2850 $lvl=2
*|S (QN:16 11.7100 1.1550) // $llx=11.7100 $lly=1.1550 $urx=11.7100 $ury=1.1550 $lvl=2
*|S (QN:17 11.7100 0.8100) // $llx=11.7100 $lly=0.8100 $urx=11.7100 $ury=0.8100 $lvl=2
*|S (QN:19 11.7100 0.7750) // $llx=11.7100 $lly=0.7750 $urx=11.7100 $ury=0.7750 $lvl=2
*|S (QN:20 11.7100 0.3950) // $llx=11.7100 $lly=0.3950 $urx=11.7100 $ury=0.3950 $lvl=2
*|S (QN:21 11.8425 3.4500) // $llx=11.8425 $lly=3.4500 $urx=11.8425 $ury=3.4500 $lvl=1
*|S (QN:22 11.7100 2.9450) // $llx=11.7100 $lly=2.9450 $urx=11.7100 $ury=2.9450 $lvl=1
*|S (QN:23 11.8425 2.4400) // $llx=11.8425 $lly=2.4400 $urx=11.8425 $ury=2.4400 $lvl=1
*|S (QN:24 11.9600 1.8850) // $llx=11.9600 $lly=1.8850 $urx=11.9600 $ury=1.8850 $lvl=1
*|S (QN:25 10.8500 1.8850) // $llx=10.8500 $lly=1.8850 $urx=10.8500 $ury=1.8850 $lvl=1
*|S (QN:26 10.8500 0.8100) // $llx=10.8500 $lly=0.8100 $urx=10.8500 $ury=0.8100 $lvl=1
*|S (QN:27 11.9600 1.0050) // $llx=11.9600 $lly=1.0050 $urx=11.9600 $ury=1.0050 $lvl=1
*|S (QN:28 11.7100 0.8100) // $llx=11.7100 $lly=0.8100 $urx=11.7100 $ury=0.8100 $lvl=1
*|S (QN:29 11.7100 0.4850) // $llx=11.7100 $lly=0.4850 $urx=11.7100 $ury=0.4850 $lvl=1
*|S (QN:30 10.8500 2.9450) // $llx=10.8500 $lly=2.9450 $urx=10.8500 $ury=2.9450 $lvl=1
*|S (QN:31 10.8500 3.4500) // $llx=10.8500 $lly=3.4500 $urx=10.8500 $ury=3.4500 $lvl=1
*|S (QN:32 10.8500 0.4850) // $llx=10.8500 $lly=0.4850 $urx=10.8500 $ury=0.4850 $lvl=1
CD1 Mmn57:d VSS! 1.1811e-18 $lvl=4
CD2 Mmn57@1:d VSS! 4.74987e-19 $lvl=4
CD3 Mmp57@3:d VSS! 1.37922e-18 $lvl=4
CD4 Mmp57@2:d VSS! 1.23316e-18 $lvl=4
CD5 QN:28 VSS! 8.28867e-18 $lvl=1
CD6 QN:26 VSS! 6.62746e-18 $lvl=1
CD7 QN:23 VSS! 5.70038e-18 $lvl=1
CD8 QN:22 VSS! 9.09028e-18 $lvl=1
CD9 QN:21 VSS! 2.57936e-18 $lvl=1
CD10 QN:31 VSS! 6.81614e-18 $lvl=1
CD11 QN:32 VSS! 2.14604e-18 $lvl=1
CD12 QN:25 VSS! 1.00018e-17 $lvl=1
CD13 QN:24 VSS! 1.08051e-17 $lvl=1
CD14 QN:29 VSS! 8.95056e-19 $lvl=1
CD15 QN:16 VSS! 3.83903e-18 $lvl=2
CD16 QN:20 VSS! 8.83654e-19 $lvl=2
CD17 QN:11 VSS! 2.70756e-18 $lvl=2
CD18 QN:15 VSS! 2.15279e-18 $lvl=2
CD19 QN:6 VSS! 3.56457e-18 $lvl=2
CD20 QN:10 VSS! 7.3634e-19 $lvl=2
CD21 QN:1 VSS! 5.05104e-18 $lvl=2
CD22 QN:5 VSS! 3.10162e-18 $lvl=2
CD23 QN:7 VSS! 1.45702e-18 $lvl=2
CD24 QN:4 VSS! 2.97048e-18 $lvl=2
CD25 QN:17 VSS! 1.39252e-18 $lvl=2
CD26 QN:14 VSS! 1.72345e-18 $lvl=2
CD27 QN:25 qint:32 4.14868e-18 $lvl1=1 $lvl2=3
CD28 QN:24 qint:32 3.83188e-18 $lvl1=1 $lvl2=3
CD29 QN:7 qint:53 3.75051e-18 $lvl1=2 $lvl2=2
CD30 QN:17 qint:53 2.63593e-18 $lvl1=2 $lvl2=2
CD31 Mmn57:d qint:32 2.09458e-18 $lvl1=4 $lvl2=3
CD32 QN:5 qint:53 2.00394e-18 $lvl1=2 $lvl2=2
CD33 Mmn57@1:d qint:32 1.87633e-18 $lvl1=4 $lvl2=3
CD34 QN:5 qint:32 1.70248e-18 $lvl1=2 $lvl2=3
CD35 QN:28 qint:32 1.6126e-18 $lvl1=1 $lvl2=3
CD36 QN:15 qint:32 1.56998e-18 $lvl1=2 $lvl2=3
CD37 QN:1 qint:32 1.54125e-18 $lvl1=2 $lvl2=3
CD38 QN:15 qint:53 1.47867e-18 $lvl1=2 $lvl2=2
CD39 QN:5 qint:39 1.45886e-18 $lvl1=2 $lvl2=3
CD40 QN:15 qint:29 1.27364e-18 $lvl1=2 $lvl2=3
CD41 QN:11 qint:32 1.08074e-18 $lvl1=2 $lvl2=3
CD42 QN:1 qint:53 9.67158e-19 $lvl1=2 $lvl2=2
CD43 QN:31 qint:53 8.89522e-19 $lvl1=1 $lvl2=2
CD44 QN:15 qint:37 8.25197e-19 $lvl1=2 $lvl2=3
CD45 QN:5 qint:40 7.80906e-19 $lvl1=2 $lvl2=3
CD46 QN:25 qint:39 6.93086e-19 $lvl1=1 $lvl2=3
CD47 QN:10 qint:38 6.77031e-19 $lvl1=2 $lvl2=3
CD48 QN:24 qint:29 6.47245e-19 $lvl1=1 $lvl2=3
CD49 QN:20 Mmn57:g 6.07089e-19 $lvl1=2 $lvl2=3
CD50 QN:10 qint 5.984e-19 $lvl1=2 $lvl2=3
CD51 QN:11 qint:53 5.98262e-19 $lvl1=2 $lvl2=2
CD52 QN:20 Mmn57@2:g 5.50126e-19 $lvl1=2 $lvl2=3
CD53 QN:6 qint:38 1.23264e-16 $lvl1=2 $lvl2=3
CD54 QN:16 qint:32 1.30489e-17 $lvl1=2 $lvl2=3
CD55 QN:1 qint:39 2.59067e-16 $lvl1=2 $lvl2=3
CD56 QN:11 qint:29 2.52287e-16 $lvl1=2 $lvl2=3
CD57 QN:1 qint:40 2.56976e-16 $lvl1=2 $lvl2=3
CD58 QN:6 qint:53 1.66563e-17 $lvl1=2 $lvl2=2
CD59 QN:16 Mmn57:g 1.29214e-16 $lvl1=2 $lvl2=3
CD60 QN:11 qint:37 2.52761e-16 $lvl1=2 $lvl2=3
CD61 QN:24 qint:53 1.37281e-17 $lvl1=1 $lvl2=2
CD62 QN:16 Mmn57@2:g 1.25749e-16 $lvl1=2 $lvl2=3
CD63 QN:25 qint:53 2.31364e-17 $lvl1=1 $lvl2=2
CD64 QN:16 qint:53 1.58045e-17 $lvl1=2 $lvl2=2
CD65 QN:6 qint 1.25846e-16 $lvl1=2 $lvl2=3
CD66 QN:6 qint:32 1.26652e-17 $lvl1=2 $lvl2=3
CD67 QN:26 qint:53 1.45595e-17 $lvl1=1 $lvl2=2
CD68 QN:28 qint:53 1.65452e-17 $lvl1=1 $lvl2=2
CD69 QN:26 VSS!:13 9.87145e-18 $lvl1=1 $lvl2=2
CD70 QN:28 VSS!:13 9.48117e-18 $lvl1=1 $lvl2=2
CD71 QN:10 VSS!:7 8.71071e-18 $lvl1=2 $lvl2=2
CD72 QN:26 VSS!:16 8.10031e-18 $lvl1=1 $lvl2=2
CD73 QN:10 VSS!:5 7.28379e-18 $lvl1=2 $lvl2=2
CD74 QN:20 VSS!:5 6.67999e-18 $lvl1=2 $lvl2=2
CD75 QN:20 VSS!:4 6.53977e-18 $lvl1=2 $lvl2=2
CD76 QN:10 VSS!:13 5.5579e-18 $lvl1=2 $lvl2=2
CD77 QN:20 VSS!:13 5.19467e-18 $lvl1=2 $lvl2=2
CD78 QN:20 VSS!:1 5.05752e-18 $lvl1=2 $lvl2=2
CD79 QN:10 VSS!:16 4.57912e-18 $lvl1=2 $lvl2=2
CD80 QN:16 VSS!:4 3.8138e-18 $lvl1=2 $lvl2=2
CD81 QN:6 VSS!:5 3.79858e-18 $lvl1=2 $lvl2=2
CD82 QN:24 VSS!:1 3.7728e-18 $lvl1=1 $lvl2=2
CD83 QN:6 VSS!:7 3.7702e-18 $lvl1=2 $lvl2=2
CD84 QN:16 VSS!:5 3.28689e-18 $lvl1=2 $lvl2=2
CD85 QN:29 VSS!:46 2.91973e-18 $lvl1=1 $lvl2=1
CD86 QN:7 VSS!:7 2.80853e-18 $lvl1=2 $lvl2=2
CD87 QN:7 VSS!:47 2.56967e-18 $lvl1=2 $lvl2=1
CD88 QN:24 VSS!:47 2.14871e-18 $lvl1=1 $lvl2=1
CD89 QN:17 VSS!:47 2.08974e-18 $lvl1=2 $lvl2=1
CD90 QN:10 VSS!:47 2.08187e-18 $lvl1=2 $lvl2=1
CD91 QN:20 VSS!:7 2.01691e-18 $lvl1=2 $lvl2=2
CD92 QN:25 VSS!:47 1.85846e-18 $lvl1=1 $lvl2=1
CD93 QN:20 VSS!:47 1.65857e-18 $lvl1=2 $lvl2=1
CD94 QN:32 VSS!:7 1.49392e-18 $lvl1=1 $lvl2=2
CD95 QN:7 VSS!:5 1.49189e-18 $lvl1=2 $lvl2=2
CD96 QN:17 VSS!:4 1.46057e-18 $lvl1=2 $lvl2=2
CD97 QN:17 VSS!:5 1.45563e-18 $lvl1=2 $lvl2=2
CD98 QN:26 VSS!:7 1.35931e-18 $lvl1=1 $lvl2=2
CD99 Mmn57:d VSS!:4 1.33829e-18 $lvl1=4 $lvl2=2
CD100 QN:28 VSS!:4 1.33788e-18 $lvl1=1 $lvl2=2
CD101 QN:29 VSS!:7 1.33218e-18 $lvl1=1 $lvl2=2
CD102 Mmn57@1:d VSS!:7 1.25574e-18 $lvl1=4 $lvl2=2
CD103 QN:31 VSS!:47 1.24816e-18 $lvl1=1 $lvl2=1
CD104 QN:17 VSS!:7 1.12953e-18 $lvl1=2 $lvl2=2
CD105 QN:32 VSS!:13 1.10871e-18 $lvl1=1 $lvl2=2
CD106 QN:29 VSS!:1 1.08789e-18 $lvl1=1 $lvl2=2
CD107 Mmn57@1:d VSS!:5 1.03733e-18 $lvl1=4 $lvl2=2
CD108 QN:24 VSS!:46 1.03634e-18 $lvl1=1 $lvl2=1
CD109 QN:32 VSS!:16 9.90859e-19 $lvl1=1 $lvl2=2
CD110 QN:28 VSS!:7 9.65002e-19 $lvl1=1 $lvl2=2
CD111 QN:22 VSS!:47 9.53657e-19 $lvl1=1 $lvl2=1
CD112 QN:28 VSS!:10 9.38345e-19 $lvl1=1 $lvl2=2
CD113 QN:25 VSS!:13 9.30303e-19 $lvl1=1 $lvl2=2
CD114 QN:6 VSS!:8 9.19306e-19 $lvl1=2 $lvl2=4
CD115 QN:22 VSS!:46 8.75255e-19 $lvl1=1 $lvl2=1
CD116 QN:29 VSS!:5 8.43333e-19 $lvl1=1 $lvl2=2
CD117 QN:29 VSS!:13 8.37762e-19 $lvl1=1 $lvl2=2
CD118 QN:16 VSS!:8 7.85512e-19 $lvl1=2 $lvl2=4
CD119 Mmn57@1:d VSS!:13 6.788e-19 $lvl1=4 $lvl2=2
CD120 QN:26 VSS!:5 6.61919e-19 $lvl1=1 $lvl2=2
CD121 Mmn57:d VSS!:5 6.60071e-19 $lvl1=4 $lvl2=2
CD122 QN:26 VSS!:46 6.38563e-19 $lvl1=1 $lvl2=1
CD123 QN:29 VSS!:4 6.36472e-19 $lvl1=1 $lvl2=2
CD124 QN:23 VSS!:1 6.13335e-19 $lvl1=1 $lvl2=2
CD125 QN:25 VSS!:46 6.10152e-19 $lvl1=1 $lvl2=1
CD126 QN:17 VSS!:13 1.34227e-17 $lvl1=2 $lvl2=2
CD127 QN:28 VSS!:46 1.24407e-17 $lvl1=1 $lvl2=1
CD128 QN:6 VSS!:16 3.87163e-17 $lvl1=2 $lvl2=2
CD129 QN:6 VSS!:13 3.67435e-17 $lvl1=2 $lvl2=2
CD130 QN:28 VSS!:1 2.56382e-17 $lvl1=1 $lvl2=2
CD131 QN:26 VSS!:47 2.1915e-17 $lvl1=1 $lvl2=1
CD132 QN:32 VSS!:47 2.19137e-17 $lvl1=1 $lvl2=1
CD133 QN:16 VSS!:1 3.84646e-17 $lvl1=2 $lvl2=2
CD134 QN:16 VSS!:13 3.84824e-17 $lvl1=2 $lvl2=2
CD135 QN:7 VSS!:13 1.43561e-17 $lvl1=2 $lvl2=2
CD136 QN:7 VSS!:16 1.32297e-17 $lvl1=2 $lvl2=2
CD137 QN:28 VSS!:47 1.62677e-17 $lvl1=1 $lvl2=1
CD138 QN:29 VSS!:47 2.65863e-17 $lvl1=1 $lvl2=1
CD139 QN:17 VSS!:1 1.40634e-17 $lvl1=2 $lvl2=2
CD140 QN:23 VDD!:52 9.25522e-18 $lvl1=1 $lvl2=2
CD141 QN:24 VDD!:52 9.02016e-18 $lvl1=1 $lvl2=2
CD142 QN:4 VDD!:47 8.63066e-18 $lvl1=2 $lvl2=2
CD143 QN:4 VDD!:44 8.58528e-18 $lvl1=2 $lvl2=2
CD144 QN:23 VDD! 8.25022e-18 $lvl1=1 $lvl2=1
CD145 QN:5 VDD!:44 7.59005e-18 $lvl1=2 $lvl2=2
CD146 QN:15 VDD!:52 7.49019e-18 $lvl1=2 $lvl2=2
CD147 QN:22 VDD!:54 7.45888e-18 $lvl1=1 $lvl2=1
CD148 QN:26 VDD! 7.40501e-18 $lvl1=1 $lvl2=1
CD149 QN:5 VDD!:47 7.35941e-18 $lvl1=2 $lvl2=2
CD150 QN:21 VDD!:54 7.08411e-18 $lvl1=1 $lvl2=1
CD151 QN:25 VDD! 7.02376e-18 $lvl1=1 $lvl2=1
CD152 QN:15 VDD!:47 6.79156e-18 $lvl1=2 $lvl2=2
CD153 QN:21 VDD!:52 6.60181e-18 $lvl1=1 $lvl2=2
CD154 QN:1 VDD!:55 6.38611e-18 $lvl1=2 $lvl2=1
CD155 QN:25 VDD!:47 5.78247e-18 $lvl1=1 $lvl2=2
CD156 QN:14 VDD!:47 4.96757e-18 $lvl1=2 $lvl2=2
CD157 QN:11 VDD!:55 4.71816e-18 $lvl1=2 $lvl2=1
CD158 QN:21 VDD! 4.67937e-18 $lvl1=1 $lvl2=1
CD159 QN:14 VDD!:52 4.2181e-18 $lvl1=2 $lvl2=2
CD160 QN:24 VDD!:47 3.49388e-18 $lvl1=1 $lvl2=2
CD161 QN:25 VDD!:44 3.47826e-18 $lvl1=1 $lvl2=2
CD162 QN:11 VDD!:14 2.9114e-18 $lvl1=2 $lvl2=2
CD163 QN:21 VDD!:47 2.88233e-18 $lvl1=1 $lvl2=2
CD164 QN:28 VDD!:52 2.57903e-18 $lvl1=1 $lvl2=2
CD165 QN:23 VDD!:47 2.4076e-18 $lvl1=1 $lvl2=2
CD166 QN:31 VDD!:14 2.40645e-18 $lvl1=1 $lvl2=2
CD167 Mmp57@2:d VDD!:44 1.91673e-18 $lvl1=4 $lvl2=2
CD168 QN:1 Mmp57:s 1.84549e-18 $lvl1=2 $lvl2=4
CD169 QN:25 VDD!:55 1.84155e-18 $lvl1=1 $lvl2=1
CD170 QN:24 VDD!:55 1.6318e-18 $lvl1=1 $lvl2=1
CD171 QN:29 VDD! 1.55709e-18 $lvl1=1 $lvl2=1
CD172 QN:31 VDD!:54 1.4959e-18 $lvl1=1 $lvl2=1
CD173 QN:4 VDD!:55 1.41998e-18 $lvl1=2 $lvl2=1
CD174 QN:28 VDD!:55 1.34208e-18 $lvl1=1 $lvl2=1
CD175 QN:21 VDD!:49 1.24985e-18 $lvl1=1 $lvl2=2
CD176 QN:11 Mmp57@1:s 1.23833e-18 $lvl1=2 $lvl2=4
CD177 QN:21 VDD!:14 1.18175e-18 $lvl1=1 $lvl2=2
CD178 QN:11 VDD!:54 1.1507e-18 $lvl1=2 $lvl2=1
CD179 QN:31 VDD!:45 1.14968e-18 $lvl1=1 $lvl2=2
CD180 QN:11 VDD!:7 1.0914e-18 $lvl1=2 $lvl2=4
CD181 QN:32 VDD! 1.0894e-18 $lvl1=1 $lvl2=1
CD182 QN:1 VDD!:7 1.04957e-18 $lvl1=2 $lvl2=4
CD183 Mmp57@3:d VDD!:49 1.02113e-18 $lvl1=4 $lvl2=2
CD184 QN:11 Mmp57:s 9.56822e-19 $lvl1=2 $lvl2=4
CD185 QN:24 VDD!:54 9.47155e-19 $lvl1=1 $lvl2=1
CD186 QN:1 Mmp55@1:s 8.91194e-19 $lvl1=2 $lvl2=4
CD187 Mmp57@2:d VDD!:45 8.69115e-19 $lvl1=4 $lvl2=2
CD188 QN:23 VDD!:55 8.56209e-19 $lvl1=1 $lvl2=1
CD189 Mmp57@3:d VDD!:45 8.23264e-19 $lvl1=4 $lvl2=2
CD190 QN:21 VDD!:45 8.18055e-19 $lvl1=1 $lvl2=2
CD191 QN:22 VDD!:49 8.02244e-19 $lvl1=1 $lvl2=2
CD192 QN:15 VDD! 7.96764e-19 $lvl1=2 $lvl2=1
CD193 QN:22 VDD!:53 7.01744e-19 $lvl1=1 $lvl2=2
CD194 QN:16 VDD! 6.56993e-19 $lvl1=2 $lvl2=1
CD195 Mmp57@2:d VDD!:14 6.5533e-19 $lvl1=4 $lvl2=2
CD196 QN:26 VDD!:55 6.22249e-19 $lvl1=1 $lvl2=1
CD197 QN:31 VDD!:52 5.98139e-19 $lvl1=1 $lvl2=2
CD198 QN:28 VDD!:54 5.89498e-19 $lvl1=1 $lvl2=1
CD199 QN:1 VDD!:14 1.29123e-17 $lvl1=2 $lvl2=2
CD200 QN:22 VDD!:47 1.2754e-17 $lvl1=1 $lvl2=2