*
*|DSPF 1.5
*
*|DATE "Wed Jan  8 22:26:48 2025"
*|VENDOR "Cadence Design Systems"
*|PROGRAM "Cadence Quantus Extraction"
*|VERSION "22.1.0-p089 Linux 64 bit - (Thu Jan 19 11:47:08 PST 2023)"
*|DESIGN DFFSRX1_HS
*|DIVIDER /
*|DELIMITER :
*|DeviceFingerDelim "@"
*|BUSBIT []
*|GLOBAL_TEMPERATURE 25
*|OPERATING_TEMPERATURE 25

** *VIA_COVERAGE_CODES
** *index FF FS FP FU SF SS SP SU PF PS PP PU UF US UP UU X_by_Y
** * "FF" stands for Full landing and Full coverage
** *0 0 0 0 0 0 0 0 0 0 0 0 0 0 0 0 0
** *1 0 0 0 0 0 0 0 0 0 0 0 0 0 0 0 1 1x1
** *2 0 0 0 0 0 0 0 0 0 0 0 0 0 0 1 0 1x1
** *3 0 0 0 0 0 0 0 0 0 0 0 0 0 1 0 0 1x1
** *4 0 0 0 0 0 0 0 0 0 0 0 0 1 0 0 0 1x1
** *5 0 0 0 0 0 0 0 0 0 0 0 1 0 0 0 0 1x1
** *6 0 0 0 0 0 0 0 0 0 0 1 0 0 0 0 0 1x1
** *7 0 0 0 0 0 0 0 0 0 1 0 0 0 0 0 0 1x1
** *8 0 0 0 0 0 0 0 0 1 0 0 0 0 0 0 0 1x1
** *9 0 0 0 0 0 0 0 1 0 0 0 0 0 0 0 0 1x1
** *10 0 0 0 0 0 0 1 0 0 0 0 0 0 0 0 0 1x1
** *11 0 0 0 0 0 1 0 0 0 0 0 0 0 0 0 0 1x1
** *12 0 0 0 0 1 0 0 0 0 0 0 0 0 0 0 0 1x1
** *13 0 0 0 1 0 0 0 0 0 0 0 0 0 0 0 0 1x1
** *14 0 0 1 0 0 0 0 0 0 0 0 0 0 0 0 0 1x1
** *15 0 1 0 0 0 0 0 0 0 0 0 0 0 0 0 0 1x1
** *16 1 0 0 0 0 0 0 0 0 0 0 0 0 0 0 0 1x1

** *RESISTOR_TYPES
** *1 SHORTING_ELEMENT
** *2 PRES_NG
** *3 PRES_PG
** *4 PRES_NF
** *5 PRES_PF
** *6 TCN_NDIFF
** *7 TCN_PDIFF
** *8 TCN_NFIELD
** *9 TCN_PFIELD
** *10 QUALITY_EXTRACTED
** *11 GCNLAND
** *12 TCNLAND
** *13 DUMMY
** *14 RSD
** *15 BRIDGE

** *RESISTOR_CURRENT_DIRECTION
** *0 HORIZONTAL
** *1 VERTICAL
** *2 45 DEGREE

** QRC_TECH_DIR /vols/wfo_devel/projects/reference_SKY130/tech/sky130_release_0.0.4/quantus/extraction/typical 
** HIERARCHICAL_SPLIT_PINS_DELIMITER '%'
** caps2d version: 10
*
.SUBCKT  DFFSRX1_HS CK D Q QN RN SN
*
*Net Section
*
*|GROUND_NET VSS!
*
*LAYER_MAP
*0 none
*1 metal1
*2 li
*3 poly
*4 diff
*5 licon_diff
*6 mcon
*7 licon
*8 FOX

*|NET D 7.76524e-16
*|P (D X 0 0.9350 1.4250) // $llx=0.9350 $lly=1.4250 $urx=0.9350 $ury=1.4250 $lvl=1
*|I (Mmp25:g Mmp25 g X 0 0.9050 3.3550) // $llx=0.9050 $lly=3.3550 $urx=0.9050 $ury=3.3550 $lvl=3
*|I (Mmn25:g Mmn25 g X 0 0.9050 0.6075) // $llx=0.9050 $lly=0.6075 $urx=0.9050 $ury=0.6075 $lvl=3
*|S (D:8 0.9050 3.8950) // $llx=0.9050 $lly=3.8950 $urx=0.9050 $ury=3.8950 $lvl=3
*|S (D:9 0.9050 1.2900) // $llx=0.9050 $lly=1.2900 $urx=0.9050 $ury=1.2900 $lvl=3
*|S (D:10 0.9050 1.1250) // $llx=0.9050 $lly=1.1250 $urx=0.9050 $ury=1.1250 $lvl=3
*|S (D:11 0.9050 0.2450) // $llx=0.9050 $lly=0.2450 $urx=0.9050 $ury=0.2450 $lvl=3
*|S (D:12 1.0850 1.2900) // $llx=1.0850 $lly=1.2900 $urx=1.0850 $ury=1.2900 $lvl=2
*|S (D:13 0.9200 1.2900) // $llx=0.9200 $lly=1.2900 $urx=0.9200 $ury=1.2900 $lvl=2
*|S (D:14 0.9050 1.2900) // $llx=0.9050 $lly=1.2900 $urx=0.9050 $ury=1.2900 $lvl=2
*|S (D:15 0.6700 1.2900) // $llx=0.6700 $lly=1.2900 $urx=0.6700 $ury=1.2900 $lvl=2
*|S (D:16 0.9200 2.0450) // $llx=0.9200 $lly=2.0450 $urx=0.9200 $ury=2.0450 $lvl=1
*|S (D:17 0.9200 1.2900) // $llx=0.9200 $lly=1.2900 $urx=0.9200 $ury=1.2900 $lvl=1
*|S (D:18 0.9200 0.8050) // $llx=0.9200 $lly=0.8050 $urx=0.9200 $ury=0.8050 $lvl=1
CB1 Mmn25:g VSS! 1.35054e-18 $lvl=3
CB2 D:16 VSS! 9.00958e-18 $lvl=1
CB3 D:18 VSS! 4.99511e-18 $lvl=1
CB4 D:8 VSS! 2.73222e-18 $lvl=3
CB5 D:14 VSS! 3.31046e-18 $lvl=2
CB6 D:15 VSS! 4.45824e-18 $lvl=2
CB7 D:13 VSS! 3.43987e-18 $lvl=2
CB8 D:9 VSS! 2.05691e-17 $lvl=3
CB9 D:8 n22 1.49705e-18 $lvl1=3 $lvl2=2
CB10 D:14 n21:3 1.07493e-18 $lvl1=2 $lvl2=2
CB11 D:9 Mmn26:s 8.74156e-19 $lvl1=3 $lvl2=4
CB12 D:13 n21:3 8.02261e-19 $lvl1=2 $lvl2=2
CB13 D:18 n21:4 6.07001e-19 $lvl1=1 $lvl2=2
CB14 Mmn25:g n21 4.99646e-19 $lvl1=3 $lvl2=2
CB15 Mmn25:g n21:4 4.51964e-19 $lvl1=3 $lvl2=2
CB16 D:15 n21:3 4.05216e-19 $lvl1=2 $lvl2=2
CB17 D:18 n21:3 3.92606e-18 $lvl1=1 $lvl2=2
CB18 D:13 n21 1.56725e-18 $lvl1=2 $lvl2=2
CB19 D:9 n21:3 2.53233e-18 $lvl1=3 $lvl2=2
CB20 D:9 n21 1.94804e-18 $lvl1=3 $lvl2=2
CB21 D:8 n22:3 6.90146e-17 $lvl1=3 $lvl2=2
CB22 Mmn25:g n21:3 6.50763e-17 $lvl1=3 $lvl2=2
CB23 D:14 n21 1.98002e-18 $lvl1=2 $lvl2=2
CB24 D:18 n21 3.25859e-18 $lvl1=1 $lvl2=2
CB25 D:9 CKbb:20 2.34945e-18 $lvl1=3 $lvl2=3
CB26 D:14 CKbb:42 2.03693e-18 $lvl1=2 $lvl2=2
CB27 D:8 CKbb:17 1.86127e-18 $lvl1=3 $lvl2=3
CB28 D:14 CKbb:20 1.13882e-18 $lvl1=2 $lvl2=3
CB29 D:9 CKbb:42 1.06469e-18 $lvl1=3 $lvl2=2
CB30 D:16 CKbb:42 9.75021e-19 $lvl1=1 $lvl2=2
CB31 D:8 CKbb:46 7.82648e-19 $lvl1=3 $lvl2=2
CB32 D:13 CKbb:42 6.97704e-19 $lvl1=2 $lvl2=2
CB33 D:16 CKbb:52 6.88327e-19 $lvl1=1 $lvl2=1
CB34 D:16 CKbb:48 6.318e-19 $lvl1=1 $lvl2=2
CB35 D:16 CKbb:51 5.46338e-19 $lvl1=1 $lvl2=1
CB36 D:18 CKbb:42 4.68088e-19 $lvl1=1 $lvl2=2
CB37 D:18 CKbb:52 3.94661e-19 $lvl1=1 $lvl2=1
CB38 D:16 CKbb:20 3.62808e-19 $lvl1=1 $lvl2=3
CB39 D:13 n20:28 3.16004e-18 $lvl1=2 $lvl2=1
CB40 D:14 n20:28 3.11e-18 $lvl1=2 $lvl2=1
CB41 D:8 n20:15 1.91155e-18 $lvl1=3 $lvl2=2
CB42 D:9 n20:28 1.32141e-18 $lvl1=3 $lvl2=1
CB43 D:14 n20:19 1.26947e-18 $lvl1=2 $lvl2=2
CB44 D:9 n20:19 1.0937e-18 $lvl1=3 $lvl2=2
CB45 D:18 n20:20 1.08331e-18 $lvl1=1 $lvl2=2
CB46 D:18 n20:19 7.3692e-19 $lvl1=1 $lvl2=2
CB47 D:18 n20:30 5.79762e-19 $lvl1=1 $lvl2=1
CB48 Mmn25:g n20:19 4.78516e-19 $lvl1=3 $lvl2=2
CB49 D:15 n20:28 3.92042e-19 $lvl1=2 $lvl2=1
CB50 D:18 n20:28 2.41238e-17 $lvl1=1 $lvl2=1
CB51 D:16 n20:30 1.53814e-17 $lvl1=1 $lvl2=1
CB52 D:16 n20:28 3.59944e-17 $lvl1=1 $lvl2=1
CB53 D:9 CKb:61 3.71252e-18 $lvl1=3 $lvl2=2
CB54 D:18 CKb:66 3.05631e-18 $lvl1=1 $lvl2=1
CB55 D:15 CKb:63 2.72619e-18 $lvl1=2 $lvl2=2
CB56 D:15 CKb:66 2.53382e-18 $lvl1=2 $lvl2=1
CB57 D:15 CKb:68 2.45554e-18 $lvl1=2 $lvl2=1
CB58 D:14 CKb:61 2.44555e-18 $lvl1=2 $lvl2=2
CB59 D:13 CKb:63 2.24966e-18 $lvl1=2 $lvl2=2
CB60 D:16 CKb:62 2.0807e-18 $lvl1=1 $lvl2=2
CB61 D:13 CKb:61 1.91069e-18 $lvl1=2 $lvl2=2
CB62 D:9 CKb:24 1.77317e-18 $lvl1=3 $lvl2=3
CB63 D:9 CKb 1.74238e-18 $lvl1=3 $lvl2=3
CB64 D:15 CKb:50 1.64501e-18 $lvl1=2 $lvl2=2
CB65 D:9 CKb:50 1.63127e-18 $lvl1=3 $lvl2=2
CB66 D:13 CKb:66 1.62965e-18 $lvl1=2 $lvl2=1
CB67 D:16 CKb:64 1.43034e-18 $lvl1=1 $lvl2=1
CB68 D:13 CKb:68 1.26202e-18 $lvl1=2 $lvl2=1
CB69 D:9 CKb:66 1.2231e-18 $lvl1=3 $lvl2=1
CB70 D:14 CKb:63 1.14259e-18 $lvl1=2 $lvl2=2
CB71 D:18 CKb:51 1.08548e-18 $lvl1=1 $lvl2=2
CB72 D:9 CKb:68 9.98175e-19 $lvl1=3 $lvl2=1
CB73 D:18 CKb:50 7.26188e-19 $lvl1=1 $lvl2=2
CB74 D:14 CKb:24 6.73671e-19 $lvl1=2 $lvl2=3
CB75 D:8 CKb:46 6.3438e-19 $lvl1=3 $lvl2=2
CB76 D:15 CKb:62 5.70811e-19 $lvl1=2 $lvl2=2
CB77 Mmn25:g CKb:50 5.57285e-19 $lvl1=3 $lvl2=2
CB78 D:16 CKb:24 5.46585e-19 $lvl1=1 $lvl2=3
CB79 D:15 CKb:61 5.03914e-19 $lvl1=2 $lvl2=2
CB80 D:16 CKb:50 4.63064e-19 $lvl1=1 $lvl2=2
CB81 D:15 CKb:51 4.61989e-19 $lvl1=2 $lvl2=2
CB82 D:13 CKb:50 4.27754e-19 $lvl1=2 $lvl2=2
CB83 D:9 Mmn20:d 4.25143e-19 $lvl1=3 $lvl2=4
CB84 D:9 CKb:62 3.96376e-19 $lvl1=3 $lvl2=2
CB85 D:14 CKb 3.69523e-19 $lvl1=2 $lvl2=3
CB86 D:13 CKb:62 2.94391e-19 $lvl1=2 $lvl2=2
CB87 D:18 CKb:64 2.53772e-19 $lvl1=1 $lvl2=1
CB88 D:18 CKb:63 2.38498e-19 $lvl1=1 $lvl2=2
CB89 D:9 CKb:51 2.37474e-19 $lvl1=3 $lvl2=2
CB90 D:14 CKb:50 2.27371e-19 $lvl1=2 $lvl2=2
CB91 D:13 CKb:24 2.05272e-19 $lvl1=2 $lvl2=3
CB92 D:18 CKb:68 2.01328e-17 $lvl1=1 $lvl2=1
CB93 D:16 CKb:63 1.06267e-17 $lvl1=1 $lvl2=2
CB94 D:9 CKb:63 4.65623e-18 $lvl1=3 $lvl2=2
CB95 D:16 CKb:61 1.19727e-17 $lvl1=1 $lvl2=2
CB96 D:16 CKb:66 3.56407e-17 $lvl1=1 $lvl2=1
CB97 D:16 CKb:68 1.03744e-17 $lvl1=1 $lvl2=1
CB98 D:15 VSS!:31 3.26877e-18 $lvl1=2 $lvl2=2
CB99 D:16 VSS!:34 3.11225e-18 $lvl1=1 $lvl2=1
CB100 D:13 VSS!:31 2.4247e-18 $lvl1=2 $lvl2=2
CB101 D:14 VSS!:31 1.29829e-18 $lvl1=2 $lvl2=2
CB102 D:18 VSS!:35 8.58012e-19 $lvl1=1 $lvl2=1
CB103 D:9 Mmn25:s 7.47862e-19 $lvl1=3 $lvl2=4
CB104 D:18 VSS!:11 6.78316e-19 $lvl1=1 $lvl2=2
CB105 D:16 VSS!:31 6.40716e-19 $lvl1=1 $lvl2=2
CB106 D:9 VSS!:31 4.58237e-18 $lvl1=3 $lvl2=2
CB107 D:18 VSS!:31 7.86464e-18 $lvl1=1 $lvl2=2
CB108 D:18 VSS!:34 1.4598e-17 $lvl1=1 $lvl2=1
CB109 Mmn25:g VSS!:31 6.74998e-17 $lvl1=3 $lvl2=2
CB110 Mmn25:g VSS!:14 8.98245e-18 $lvl1=3 $lvl2=2
CB111 D:9 VDD! 2.68937e-18 $lvl1=3 $lvl2=1
CB112 D:15 VDD! 1.15923e-18 $lvl1=2 $lvl2=1
CB113 D:8 VDD!:1 1.30443e-16 $lvl1=3 $lvl2=2
CB114 D:8 VDD!:4 1.04329e-17 $lvl1=3 $lvl2=2
CB115 D:16 VDD! 7.99883e-18 $lvl1=1 $lvl2=1
CB116 D:18 VDD! 4.92758e-18 $lvl1=1 $lvl2=1
ReB14 D:16 D 0.298077 $metal1  $L=0.62 $W=0.260000 $SI_W=0.26 $TYPE=10 $DIR=1 $LLX=0.790000 $LLY=1.425000 $URX=1.050000 $URY=2.045000 $lvl=1
ReB15 D D:17 0.064904 $metal1  $L=0.135 $W=0.260000 $SI_W=0.26 $TYPE=10 $DIR=1 $LLX=0.805000 $LLY=1.290000 $URX=1.065000 $URY=1.425000 $lvl=1
ReB16 D:17 D:18 0.233173 $metal1  $L=0.485 $W=0.260000 $SI_W=0.26 $TYPE=10 $DIR=1 $LLX=0.790000 $LLY=0.805000 $URX=1.050000 $URY=1.290000 $lvl=1
RfB17 D:12 D:13 12.423529 $li  $L=0.165 $W=0.170000 $SI_W=0.17 $TYPE=10 $DIR=0 $LLX=0.920000 $LLY=1.205000 $URX=1.085000 $URY=1.375000 $lvl=2
RfB18 D:13 D:14 1.129412 $li  $L=0.015 $W=1000000 $SI_W=1000000 $TYPE=1,10 $DIR=0 $LLX=0.905000 $LLY=1.205000 $URX=0.920000 $URY=1.375000 $lvl=2
RfB19 D:14 D:15 17.694118 $li  $L=0.235 $W=0.170000 $SI_W=0.17 $TYPE=10 $DIR=0 $LLX=0.670000 $LLY=1.205000 $URX=0.905000 $URY=1.375000 $lvl=2
RgB20 D:8 Mmp25:g 173.519989 $poly  $L=0.54 $W=0.150000 $SI_W=0.15 $TYPE=10 $DIR=1 $LLX=0.830000 $LLY=3.355000 $URX=0.980000 $URY=3.895000 $lvl=3
RgB21 Mmp25:g D:9 644.712402 $poly  $L=2.065 $W=0.150000 $SI_W=0.15 $TYPE=10 $DIR=1 $LLX=0.830000 $LLY=1.290000 $URX=0.980000 $URY=3.355000 $lvl=3
RgB22 D:9 D:10 34.134449 $poly  $L=0.1645 $W=0.270000 $SI_W=0.27 $TYPE=10 $DIR=1 $LLX=0.770000 $LLY=1.125500 $URX=1.040000 $URY=1.290000 $lvl=3
RgB23 D:10 Mmn25:g 166.334625 $poly  $L=0.5175 $W=0.150000 $SI_W=0.15 $TYPE=10 $DIR=1 $LLX=0.830000 $LLY=0.607500 $URX=0.980000 $URY=1.125000 $lvl=3
RgB24 Mmn25:g D:11 116.483322 $poly  $L=0.3625 $W=0.150000 $SI_W=0.15 $TYPE=10 $DIR=1 $LLX=0.830000 $LLY=0.245000 $URX=0.980000 $URY=0.607500 $lvl=3
RjB25 D:13 D:17 152.000000 $mcon  $L=0.17 $W=0.17 $A=0.0289 $VC=0 $SAVL=0 $SAVC=0 $SI_A=0.0289 $COVER_DIR=0 $LLX=0.000000 $LLY=0.000000 $URX=0.170000 $URY=0.170000 $lvl=6
RiB26 D:9 D:14 15.000000 $licon  $L=0.17 $W=0.17 $A=0.0289 $VC=0 $SAVL=0 $SAVC=0 $SI_A=0.0289 $COVER_DIR=0 $LLX=0.000000 $LLY=0.000000 $URX=0.170000 $URY=0.170000 $lvl=7
*
*|NET qint 2.10787e-15
*|I (Mmp56:d Mmp56 d X 0 9.6705 3.3550) // $llx=9.6705 $lly=3.3550 $urx=9.6705 $ury=3.3550 $lvl=4
*|I (Mmp57:g Mmp57 g X 0 10.9750 3.0150) // $llx=10.9750 $lly=3.0150 $urx=10.9750 $ury=3.0150 $lvl=3
*|I (Mmn56:d Mmn56 d X 0 9.6705 0.6075) // $llx=9.6705 $lly=0.6075 $urx=9.6705 $ury=0.6075 $lvl=4
*|I (Mmn57:g Mmn57 g X 0 10.9750 0.7750) // $llx=10.9750 $lly=0.7750 $urx=10.9750 $ury=0.7750 $lvl=3
*|S (qint 10.9750 0.7750) // $llx=10.9750 $lly=0.7750 $urx=10.9750 $ury=0.7750 $lvl=3
*|S (qint:8 10.9750 3.8950) // $llx=10.9750 $lly=3.8950 $urx=10.9750 $ury=3.8950 $lvl=3
*|S (qint:9 11.0350 1.5995) // $llx=11.0350 $lly=1.5995 $urx=11.0350 $ury=1.5995 $lvl=3
*|S (qint:10 11.0350 1.4350) // $llx=11.0350 $lly=1.4350 $urx=11.0350 $ury=1.4350 $lvl=3
*|S (qint:11 11.0350 1.2700) // $llx=11.0350 $lly=1.2700 $urx=11.0350 $ury=1.2700 $lvl=3
*|S (qint:12 10.9750 0.2450) // $llx=10.9750 $lly=0.2450 $urx=10.9750 $ury=0.2450 $lvl=3
*|S (qint:13 9.8100 3.7450) // $llx=9.8100 $lly=3.7450 $urx=9.8100 $ury=3.7450 $lvl=2
*|S (qint:15 9.8100 3.3550) // $llx=9.8100 $lly=3.3550 $urx=9.8100 $ury=3.3550 $lvl=2
*|S (qint:16 9.8100 3.0900) // $llx=9.8100 $lly=3.0900 $urx=9.8100 $ury=3.0900 $lvl=2
*|S (qint:17 9.8100 0.8200) // $llx=9.8100 $lly=0.8200 $urx=9.8100 $ury=0.8200 $lvl=2
*|S (qint:18 9.8100 0.6550) // $llx=9.8100 $lly=0.6550 $urx=9.8100 $ury=0.6550 $lvl=2
*|S (qint:20 9.8100 0.6050) // $llx=9.8100 $lly=0.6050 $urx=9.8100 $ury=0.6050 $lvl=2
*|S (qint:21 9.8100 0.3950) // $llx=9.8100 $lly=0.3950 $urx=9.8100 $ury=0.3950 $lvl=2
*|S (qint:22 11.2000 1.4350) // $llx=11.2000 $lly=1.4350 $urx=11.2000 $ury=1.4350 $lvl=2
*|S (qint:23 11.0350 1.4350) // $llx=11.0350 $lly=1.4350 $urx=11.0350 $ury=1.4350 $lvl=2
*|S (qint:24 9.8100 1.4350) // $llx=9.8100 $lly=1.4350 $urx=9.8100 $ury=1.4350 $lvl=2
*|S (qint:25 9.6450 1.4350) // $llx=9.6450 $lly=1.4350 $urx=9.6450 $ury=1.4350 $lvl=2
*|S (qint:26 9.8100 3.2350) // $llx=9.8100 $lly=3.2350 $urx=9.8100 $ury=3.2350 $lvl=1
*|S (qint:27 9.8100 3.0900) // $llx=9.8100 $lly=3.0900 $urx=9.8100 $ury=3.0900 $lvl=1
*|S (qint:28 9.8100 1.4350) // $llx=9.8100 $lly=1.4350 $urx=9.8100 $ury=1.4350 $lvl=1
*|S (qint:29 9.8100 0.6550) // $llx=9.8100 $lly=0.6550 $urx=9.8100 $ury=0.6550 $lvl=1
*|S (qint:30 9.8100 0.5100) // $llx=9.8100 $lly=0.5100 $urx=9.8100 $ury=0.5100 $lvl=1
CP1 Mmn56:d VSS! 1.17557e-18 $lvl=4
CP2 Mmp56:d VSS! 1.93603e-18 $lvl=4
CP3 qint:28 VSS! 1.48914e-17 $lvl=1
CP4 qint:26 VSS! 1.20113e-17 $lvl=1
CP5 qint:30 VSS! 5.86931e-18 $lvl=1
CP6 qint:8 VSS! 2.29155e-18 $lvl=3
CP7 qint:22 VSS! 7.04001e-18 $lvl=2
CP8 qint:25 VSS! 1.00425e-17 $lvl=2
CP9 qint:17 VSS! 1.04215e-17 $lvl=2
CP10 qint:21 VSS! 1.41543e-18 $lvl=2
CP11 qint:13 VSS! 4.00186e-18 $lvl=2
CP12 qint:18 VSS! 2.02402e-18 $lvl=2
CP13 qint:24 VSS! 2.74714e-18 $lvl=2
CP14 qint:16 VSS! 1.61686e-18 $lvl=2
CP15 qint:10 VSS! 1.63516e-17 $lvl=3
CP16 qint VSS! 2.13096e-18 $lvl=3
CP17 qint:17 VSS!:9 8.48959e-18 $lvl1=2 $lvl2=2
CP18 qint:10 VSS!:1 8.05143e-18 $lvl1=3 $lvl2=2
CP19 qint:18 VSS!:19 7.42123e-18 $lvl1=2 $lvl2=2
CP20 qint VSS!:4 7.17203e-18 $lvl1=3 $lvl2=2
CP21 qint:30 VSS!:19 6.17029e-18 $lvl1=1 $lvl2=2
CP22 qint:21 VSS!:19 5.66309e-18 $lvl1=2 $lvl2=2
CP23 qint:28 VSS!:33 4.6732e-18 $lvl1=1 $lvl2=1
CP24 Mmn56:d VSS!:9 2.83872e-18 $lvl1=4 $lvl2=2
CP25 qint:21 VSS!:33 2.2945e-18 $lvl1=2 $lvl2=1
CP26 qint:30 VSS!:9 2.2293e-18 $lvl1=1 $lvl2=2
CP27 qint:28 VSS!:19 2.08017e-18 $lvl1=1 $lvl2=2
CP28 qint:21 VSS!:6 2.07523e-18 $lvl1=2 $lvl2=2
CP29 qint:25 VSS!:19 1.89332e-18 $lvl1=2 $lvl2=2
CP30 qint:30 VSS!:6 1.84299e-18 $lvl1=1 $lvl2=2
CP31 qint:17 VSS!:7 1.82354e-18 $lvl1=2 $lvl2=4
CP32 qint:18 VSS!:33 1.71255e-18 $lvl1=2 $lvl2=1
CP33 qint:18 VSS!:9 1.67632e-18 $lvl1=2 $lvl2=2
CP34 qint:25 VSS!:1 1.45747e-18 $lvl1=2 $lvl2=2
CP35 qint:24 VSS!:19 1.24954e-18 $lvl1=2 $lvl2=2
CP36 qint:26 VSS!:33 1.05148e-18 $lvl1=1 $lvl2=1
CP37 qint:18 VSS!:6 1.0391e-18 $lvl1=2 $lvl2=2
CP38 qint:21 VSS!:4 9.7776e-19 $lvl1=2 $lvl2=2
CP39 qint:17 VSS!:19 2.08906e-17 $lvl1=2 $lvl2=2
CP40 qint:30 VSS!:33 3.5906e-17 $lvl1=1 $lvl2=1
CP41 qint:22 VSS!:1 1.99352e-17 $lvl1=2 $lvl2=2
CP42 qint VSS!:1 1.26077e-16 $lvl1=3 $lvl2=2
CP43 qint:21 VSS!:9 1.35437e-17 $lvl1=2 $lvl2=2
ReP504 qint:26 qint:27 0.078804 $metal1  $L=0.145 $W=0.230000 $SI_W=0.23 $TYPE=10 $DIR=1 $LLX=9.695000 $LLY=3.090000 $URX=9.925000 $URY=3.235000 $lvl=1
ReP505 qint:27 qint:28 0.899457 $metal1  $L=1.655 $W=0.230000 $SI_W=0.23 $TYPE=10 $DIR=1 $LLX=9.695000 $LLY=1.435000 $URX=9.925000 $URY=3.090000 $lvl=1
ReP506 qint:28 qint:29 0.423913 $metal1  $L=0.78 $W=0.230000 $SI_W=0.23 $TYPE=10 $DIR=1 $LLX=9.695000 $LLY=0.655000 $URX=9.925000 $URY=1.435000 $lvl=1
ReP507 qint:29 qint:30 0.078804 $metal1  $L=0.145 $W=0.230000 $SI_W=0.23 $TYPE=10 $DIR=1 $LLX=9.695000 $LLY=0.510000 $URX=9.925000 $URY=0.655000 $lvl=1
RfP508 qint:13 qint:15 29.364706 $li  $L=0.39 $W=0.170000 $SI_W=0.17 $TYPE=10 $DIR=1 $LLX=9.725000 $LLY=3.355000 $URX=9.895000 $URY=3.745000 $lvl=2
RfP509 qint:15 qint:16 19.952942 $li  $L=0.265 $W=0.170000 $SI_W=0.17 $TYPE=10 $DIR=1 $LLX=9.725000 $LLY=3.090000 $URX=9.895000 $URY=3.355000 $lvl=2
RfP510 qint:17 qint:18 12.423529 $li  $L=0.165 $W=0.170000 $SI_W=0.17 $TYPE=10 $DIR=1 $LLX=9.725000 $LLY=0.655000 $URX=9.895000 $URY=0.820000 $lvl=2
RfP511 qint:18 qint:20 3.764706 $li  $L=0.05 $W=0.170000 $SI_W=0.17 $TYPE=10 $DIR=1 $LLX=9.725000 $LLY=0.605000 $URX=9.895000 $URY=0.655000 $lvl=2
RfP512 qint:20 qint:21 15.811765 $li  $L=0.21 $W=0.170000 $SI_W=0.17 $TYPE=10 $DIR=1 $LLX=9.725000 $LLY=0.395000 $URX=9.895000 $URY=0.605000 $lvl=2
RfP513 qint:22 qint:23 12.423529 $li  $L=0.165 $W=0.170000 $SI_W=0.17 $TYPE=10 $DIR=0 $LLX=11.035000 $LLY=1.350000 $URX=11.200000 $URY=1.520000 $lvl=2
RfP514 qint:23 qint:24 92.235298 $li  $L=1.225 $W=0.170000 $SI_W=0.17 $TYPE=10 $DIR=0 $LLX=9.810000 $LLY=1.350000 $URX=11.035000 $URY=1.520000 $lvl=2
RfP515 qint:24 qint:25 12.423529 $li  $L=0.165 $W=0.170000 $SI_W=0.17 $TYPE=10 $DIR=0 $LLX=9.645000 $LLY=1.350000 $URX=9.810000 $URY=1.520000 $lvl=2
RgP516 qint:8 Mmp57:g 282.773346 $poly  $L=0.88 $W=0.150000 $SI_W=0.15 $TYPE=10 $DIR=1 $LLX=10.900000 $LLY=3.015000 $URX=11.050000 $URY=3.895000 $lvl=3
RgP517 Mmp57:g qint:9 454.731293 $poly  $L=1.415 $W=0.150000 $SI_W=0.15 $TYPE=10 $DIR=1 $LLX=10.900000 $LLY=1.599500 $URX=11.050000 $URY=3.014500 $lvl=3
RgP518 qint:9 qint:10 38.857975 $poly  $L=0.1645 $W=0.270000 $SI_W=0.27 $TYPE=10 $DIR=1 $LLX=10.900000 $LLY=1.435000 $URX=11.170000 $URY=1.599500 $lvl=3
RgP519 qint:10 qint:11 29.410927 $poly  $L=0.1645 $W=0.270000 $SI_W=0.27 $TYPE=10 $DIR=1 $LLX=10.900000 $LLY=1.270500 $URX=11.170000 $URY=1.435000 $lvl=3
RgP520 qint:11 qint 159.104630 $poly  $L=0.495 $W=0.150000 $SI_W=0.15 $TYPE=10 $DIR=1 $LLX=10.900000 $LLY=0.775000 $URX=11.050000 $URY=1.270000 $lvl=3
RgP521 qint qint:12 170.306671 $poly  $L=0.53 $W=0.150000 $SI_W=0.15 $TYPE=10 $DIR=1 $LLX=10.900000 $LLY=0.245000 $URX=11.050000 $URY=0.775000 $lvl=3
RhP522 Mmn56:d qint:20 15.000000 $licon_diff  $L=0.17 $W=0.17 $A=0.0289 $VC=0 $SAVL=0 $SAVC=0 $SI_A=0.0289 $COVER_DIR=0 $LLX=0.000000 $LLY=0.000000 $URX=0.170000 $URY=0.170000 $lvl=5
Rh_2_P523 Mmp56:d qint:15 7.500000 $licon_diff  $A=0.0578 $VC=0 $SAVL=0 $SAVC=0 $SI_A=0.0578 $COVER_DIR=0 $LLX=0.000000 $LLY=0.000000 $URX=-0.057800 $URY=-2.000000 $lvl=5
RjP524 qint:16 qint:27 152.000000 $mcon  $L=0.17 $W=0.17 $A=0.0289 $VC=0 $SAVL=0 $SAVC=0 $SI_A=0.0289 $COVER_DIR=0 $LLX=0.000000 $LLY=0.000000 $URX=0.170000 $URY=0.170000 $lvl=6
RjP525 qint:24 qint:28 152.000000 $mcon  $L=0.17 $W=0.17 $A=0.0289 $VC=0 $SAVL=0 $SAVC=0 $SI_A=0.0289 $COVER_DIR=0 $LLX=0.000000 $LLY=0.000000 $URX=0.170000 $URY=0.170000 $lvl=6
RjP526 qint:18 qint:29 152.000000 $mcon  $L=0.17 $W=0.17 $A=0.0289 $VC=0 $SAVL=0 $SAVC=0 $SI_A=0.0289 $COVER_DIR=0 $LLX=0.000000 $LLY=0.000000 $URX=0.170000 $URY=0.170000 $lvl=6
RiP527 qint:10 qint:23 15.000000 $licon  $L=0.17 $W=0.17 $A=0.0289 $VC=0 $SAVL=0 $SAVC=0 $SI_A=0.0289 $COVER_DIR=0 $LLX=0.000000 $LLY=0.000000 $URX=0.170000 $URY=0.170000 $lvl=7
RmwP528 Mmn57:g qint 0.001000 $poly $W=1000000 $SI_W=1000000 $TYPE=1 $DIR=0
*
*|NET n21 2.71458e-16
*|I (Mmn26:s Mmn26 s X 0 1.2595 0.6075) // $llx=1.2595 $lly=0.6075 $urx=1.2595 $ury=0.6075 $lvl=4
*|I (Mmn25:d Mmn25 d X 0 0.9805 0.6075) // $llx=0.9805 $lly=0.6075 $urx=0.9805 $ury=0.6075 $lvl=4
*|S (n21 1.1200 0.8195) // $llx=1.1200 $lly=0.8195 $urx=1.1200 $ury=0.8195 $lvl=2
*|S (n21:3 1.1200 0.6050) // $llx=1.1200 $lly=0.6050 $urx=1.1200 $ury=0.6050 $lvl=2
*|S (n21:4 1.1200 0.3950) // $llx=1.1200 $lly=0.3950 $urx=1.1200 $ury=0.3950 $lvl=2
CR1 Mmn26:s VSS! 1.44382e-18 $lvl=4
CR2 n21:3 VSS! 9.01892e-18 $lvl=2
CR3 n21:4 VSS! 7.74434e-19 $lvl=2
CR4 n21 VSS! 3.60061e-18 $lvl=2
CR5 Mmn26:s VSS!:14 1.31073e-18 $lvl1=4 $lvl2=2
CR6 n21:3 VSS!:11 1.28666e-18 $lvl1=2 $lvl2=2
CR7 n21:3 VSS!:7 8.66211e-19 $lvl1=2 $lvl2=4
CR8 n21 VSS!:34 5.03766e-19 $lvl1=2 $lvl2=1
CR9 n21:3 VSS!:13 4.29786e-19 $lvl1=2 $lvl2=2
CR10 n21:3 Mmn25:s 3.53322e-19 $lvl1=2 $lvl2=4
CR11 n21:4 VSS!:34 2.37891e-18 $lvl1=2 $lvl2=1
CR12 n21:3 VSS!:31 2.19843e-17 $lvl1=2 $lvl2=2
CR13 n21:4 VSS!:11 2.18128e-18 $lvl1=2 $lvl2=2
CR14 n21:3 VSS!:14 1.00909e-17 $lvl1=2 $lvl2=2
CR15 n21:4 VSS!:31 4.00719e-18 $lvl1=2 $lvl2=2
CR16 n21:4 VSS!:14 1.10077e-17 $lvl1=2 $lvl2=2
CR17 n21:3 VSS!:34 3.15915e-18 $lvl1=2 $lvl2=1
CR18 n21 VSS!:31 4.78054e-18 $lvl1=2 $lvl2=2
RfR555 n21 n21:3 16.150589 $li  $L=0.2145 $W=0.170000 $SI_W=0.17 $TYPE=10 $DIR=1 $LLX=1.035000 $LLY=0.605000 $URX=1.205000 $URY=0.819500 $lvl=2
RfR556 n21:3 n21:4 15.811765 $li  $L=0.21 $W=0.170000 $SI_W=0.17 $TYPE=10 $DIR=1 $LLX=1.035000 $LLY=0.395000 $URX=1.205000 $URY=0.605000 $lvl=2
RhR557 Mmn26:s n21:3 15.000000 $licon_diff  $L=0.17 $W=0.17 $A=0.0289 $VC=0 $SAVL=0 $SAVC=0 $SI_A=0.0289 $COVER_DIR=0 $LLX=0.000000 $LLY=0.000000 $URX=0.170000 $URY=0.170000 $lvl=5
RmwR558 Mmn25:d Mmn26:s 0.001000 $diff $W=1000000 $SI_W=1000000 $TYPE=1 $DIR=0
*
*|NET n22 3.00861e-16
*|I (Mmp25:d Mmp25 d X 0 0.9805 3.3550) // $llx=0.9805 $lly=3.3550 $urx=0.9805 $ury=3.3550 $lvl=4
*|I (Mmp26:s Mmp26 s X 0 1.2595 3.3550) // $llx=1.2595 $lly=3.3550 $urx=1.2595 $ury=3.3550 $lvl=4
*|S (n22 1.1200 3.5495) // $llx=1.1200 $lly=3.5495 $urx=1.1200 $ury=3.5495 $lvl=2
*|S (n22:3 1.1200 3.2350) // $llx=1.1200 $lly=3.2350 $urx=1.1200 $ury=3.2350 $lvl=2
*|S (n22:4 1.1200 2.9250) // $llx=1.1200 $lly=2.9250 $urx=1.1200 $ury=2.9250 $lvl=2
CR19 Mmp25:d VSS! 1.47907e-18 $lvl=4
CR20 n22:3 VSS! 2.59705e-18 $lvl=2
CR21 n22:4 VSS! 2.54038e-18 $lvl=2
CR22 n22 VSS! 1.6739e-18 $lvl=2
RfR559 n22 n22:3 23.680000 $li  $L=0.3145 $W=0.170000 $SI_W=0.17 $TYPE=10 $DIR=1 $LLX=1.035000 $LLY=3.235000 $URX=1.205000 $URY=3.549500 $lvl=2
RfR560 n22:3 n22:4 23.341177 $li  $L=0.31 $W=0.170000 $SI_W=0.17 $TYPE=10 $DIR=1 $LLX=1.035000 $LLY=2.925000 $URX=1.205000 $URY=3.235000 $lvl=2
Rh_2_R561 Mmp25:d n22:3 15.000000 $licon_diff  $L=0.17 $W=0.17 $A=0.0289 $VC=0 $SAVL=0 $SAVC=0 $SI_A=0.0289 $COVER_DIR=0 $LLX=0.000000 $LLY=0.000000 $URX=0.170000 $URY=0.170000 $lvl=5
RmwR562 Mmp26:s Mmp25:d 0.001000 $diff $W=1000000 $SI_W=1000000 $TYPE=1 $DIR=0
*
*|NET n30 2.70584e-16
*|I (Mmn35:d Mmn35 d X 0 2.1195 0.6075) // $llx=2.1195 $lly=0.6075 $urx=2.1195 $ury=0.6075 $lvl=4
*|I (Mmn36:s Mmn36 s X 0 1.8405 0.6075) // $llx=1.8405 $lly=0.6075 $urx=1.8405 $ury=0.6075 $lvl=4
*|S (n30 1.9800 0.8195) // $llx=1.9800 $lly=0.8195 $urx=1.9800 $ury=0.8195 $lvl=2
*|S (n30:3 1.9800 0.6050) // $llx=1.9800 $lly=0.6050 $urx=1.9800 $ury=0.6050 $lvl=2
*|S (n30:4 1.9800 0.3950) // $llx=1.9800 $lly=0.3950 $urx=1.9800 $ury=0.3950 $lvl=2
CR23 Mmn35:d VSS! 1.38835e-18 $lvl=4
CR24 n30:3 VSS! 8.17189e-18 $lvl=2
CR25 n30:4 VSS! 1.43823e-18 $lvl=2
CR26 n30 VSS! 2.25772e-18 $lvl=2
CR27 Mmn35:d VSS!:13 1.03976e-18 $lvl1=4 $lvl2=2
CR28 n30:3 VSS!:7 9.22856e-19 $lvl1=2 $lvl2=4
CR29 n30 VSS!:34 7.70812e-19 $lvl1=2 $lvl2=1
CR30 n30:3 VSS!:14 6.48801e-19 $lvl1=2 $lvl2=2
CR31 n30:3 Mmn35:s 4.14343e-19 $lvl1=2 $lvl2=4
CR32 n30:4 VSS!:34 2.99772e-18 $lvl1=2 $lvl2=1
CR33 n30:3 VSS!:28 2.22959e-17 $lvl1=2 $lvl2=2
CR34 n30 VSS!:28 4.92192e-18 $lvl1=2 $lvl2=2
CR35 n30:4 VSS!:28 3.87872e-18 $lvl1=2 $lvl2=2
CR36 n30:3 VSS!:13 9.79992e-18 $lvl1=2 $lvl2=2
CR37 n30:3 VSS!:34 3.67818e-18 $lvl1=2 $lvl2=1
CR38 n30:4 VSS!:11 2.21415e-18 $lvl1=2 $lvl2=2
CR39 n30:4 VSS!:13 1.10926e-17 $lvl1=2 $lvl2=2
CR40 n30:3 VSS!:11 1.37896e-18 $lvl1=2 $lvl2=2
RfR563 n30 n30:3 16.150589 $li  $L=0.2145 $W=0.170000 $SI_W=0.17 $TYPE=10 $DIR=1 $LLX=1.895000 $LLY=0.605000 $URX=2.065000 $URY=0.819500 $lvl=2
RfR564 n30:3 n30:4 15.811765 $li  $L=0.21 $W=0.170000 $SI_W=0.17 $TYPE=10 $DIR=1 $LLX=1.895000 $LLY=0.395000 $URX=2.065000 $URY=0.605000 $lvl=2
RhR565 Mmn35:d n30:3 15.000000 $licon_diff  $L=0.17 $W=0.17 $A=0.0289 $VC=0 $SAVL=0 $SAVC=0 $SI_A=0.0289 $COVER_DIR=0 $LLX=0.000000 $LLY=0.000000 $URX=0.170000 $URY=0.170000 $lvl=5
RmwR566 Mmn36:s Mmn35:d 0.001000 $diff $W=1000000 $SI_W=1000000 $TYPE=1 $DIR=0
*
*|NET n31 3.07077e-16
*|I (Mmp35:d Mmp35 d X 0 2.1195 3.3550) // $llx=2.1195 $lly=3.3550 $urx=2.1195 $ury=3.3550 $lvl=4
*|I (Mmp36:s Mmp36 s X 0 1.8405 3.3550) // $llx=1.8405 $lly=3.3550 $urx=1.8405 $ury=3.3550 $lvl=4
*|S (n31 1.9800 3.5495) // $llx=1.9800 $lly=3.5495 $urx=1.9800 $ury=3.5495 $lvl=2
*|S (n31:3 1.9800 3.2350) // $llx=1.9800 $lly=3.2350 $urx=1.9800 $ury=3.2350 $lvl=2
*|S (n31:4 1.9800 2.9250) // $llx=1.9800 $lly=2.9250 $urx=1.9800 $ury=2.9250 $lvl=2
CR41 Mmp35:d VSS! 1.04129e-18 $lvl=4
CR42 n31:3 VSS! 1.98922e-18 $lvl=2
CR43 n31:4 VSS! 2.77303e-18 $lvl=2
CR44 n31 VSS! 1.70865e-18 $lvl=2
RfR567 n31 n31:3 23.680000 $li  $L=0.3145 $W=0.170000 $SI_W=0.17 $TYPE=10 $DIR=1 $LLX=1.895000 $LLY=3.235000 $URX=2.065000 $URY=3.549500 $lvl=2
RfR568 n31:3 n31:4 23.341177 $li  $L=0.31 $W=0.170000 $SI_W=0.17 $TYPE=10 $DIR=1 $LLX=1.895000 $LLY=2.925000 $URX=2.065000 $URY=3.235000 $lvl=2
Rh_2_R569 Mmp35:d n31:3 15.000000 $licon_diff  $L=0.17 $W=0.17 $A=0.0289 $VC=0 $SAVL=0 $SAVC=0 $SI_A=0.0289 $COVER_DIR=0 $LLX=0.000000 $LLY=0.000000 $URX=0.170000 $URY=0.170000 $lvl=5
RmwR570 Mmp36:s Mmp35:d 0.001000 $diff $W=1000000 $SI_W=1000000 $TYPE=1 $DIR=0
*
*|NET RNb 2.37956e-15
*|I (Mmp31:g Mmp31 g X 0 4.1650 3.3550) // $llx=4.1650 $lly=3.3550 $urx=4.1650 $ury=3.3550 $lvl=3
*|I (Mmp51:g Mmp51 g X 0 6.3150 3.3550) // $llx=6.3150 $lly=3.3550 $urx=6.3150 $ury=3.3550 $lvl=3
*|I (Mmp22:d Mmp22 d X 0 7.3405 3.3550) // $llx=7.3405 $lly=3.3550 $urx=7.3405 $ury=3.3550 $lvl=4
*|I (Mmn31:g Mmn31 g X 0 4.0050 0.6075) // $llx=4.0050 $lly=0.6075 $urx=4.0050 $ury=0.6075 $lvl=3
*|I (Mmn51:g Mmn51 g X 0 6.2750 0.6075) // $llx=6.2750 $lly=0.6075 $urx=6.2750 $ury=0.6075 $lvl=3
*|I (Mmn22:d Mmn22 d X 0 7.2105 0.6075) // $llx=7.2105 $lly=0.6075 $urx=7.2105 $ury=0.6075 $lvl=4
*|S (RNb 4.0050 0.6075) // $llx=4.0050 $lly=0.6075 $urx=4.0050 $ury=0.6075 $lvl=3
*|S (RNb:15 4.1650 3.8950) // $llx=4.1650 $lly=3.8950 $urx=4.1650 $ury=3.8950 $lvl=3
*|S (RNb:16 4.1650 2.3100) // $llx=4.1650 $lly=2.3100 $urx=4.1650 $ury=2.3100 $lvl=3
*|S (RNb:18 4.0050 0.2450) // $llx=4.0050 $lly=0.2450 $urx=4.0050 $ury=0.2450 $lvl=3
*|S (RNb:19 6.2750 0.2450) // $llx=6.2750 $lly=0.2450 $urx=6.2750 $ury=0.2450 $lvl=3
*|S (RNb:20 6.2650 1.5800) // $llx=6.2650 $lly=1.5800 $urx=6.2650 $ury=1.5800 $lvl=3
*|S (RNb:21 6.2650 1.7450) // $llx=6.2650 $lly=1.7450 $urx=6.2650 $ury=1.7450 $lvl=3
*|S (RNb:22 6.3150 3.8950) // $llx=6.3150 $lly=3.8950 $urx=6.3150 $ury=3.8950 $lvl=3
*|S (RNb:23 6.3450 2.8145) // $llx=6.3450 $lly=2.8145 $urx=6.3450 $ury=2.8145 $lvl=3
*|S (RNb:24 6.3450 2.6500) // $llx=6.3450 $lly=2.6500 $urx=6.3450 $ury=2.6500 $lvl=3
*|S (RNb:25 7.4800 3.7450) // $llx=7.4800 $lly=3.7450 $urx=7.4800 $ury=3.7450 $lvl=2
*|S (RNb:27 7.4800 3.3550) // $llx=7.4800 $lly=3.3550 $urx=7.4800 $ury=3.3550 $lvl=2
*|S (RNb:28 7.4800 2.6500) // $llx=7.4800 $lly=2.6500 $urx=7.4800 $ury=2.6500 $lvl=2
*|S (RNb:29 6.3450 2.6500) // $llx=6.3450 $lly=2.6500 $urx=6.3450 $ury=2.6500 $lvl=2
*|S (RNb:30 6.2650 2.3100) // $llx=6.2650 $lly=2.3100 $urx=6.2650 $ury=2.3100 $lvl=2
*|S (RNb:31 6.2650 1.7450) // $llx=6.2650 $lly=1.7450 $urx=6.2650 $ury=1.7450 $lvl=2
*|S (RNb:32 7.3500 1.6300) // $llx=7.3500 $lly=1.6300 $urx=7.3500 $ury=1.6300 $lvl=2
*|S (RNb:34 7.3500 0.6050) // $llx=7.3500 $lly=0.6050 $urx=7.3500 $ury=0.6050 $lvl=2
*|S (RNb:35 7.3500 0.3950) // $llx=7.3500 $lly=0.3950 $urx=7.3500 $ury=0.3950 $lvl=2
*|S (RNb:36 4.1050 2.3100) // $llx=4.1050 $lly=2.3100 $urx=4.1050 $ury=2.3100 $lvl=2
*|S (RNb:37 3.9400 2.3100) // $llx=3.9400 $lly=2.3100 $urx=3.9400 $ury=2.3100 $lvl=2
CQ1 Mmn22:d VSS! 1.67927e-18 $lvl=4
CQ2 Mmp22:d VSS! 1.49238e-18 $lvl=4
CQ3 RNb:22 VSS! 3.29549e-18 $lvl=3
CQ4 RNb:19 VSS! 3.71037e-18 $lvl=3
CQ5 RNb:15 VSS! 5.4152e-18 $lvl=3
CQ6 RNb:18 VSS! 3.68291e-18 $lvl=3
CQ7 RNb:16 VSS! 1.89764e-17 $lvl=3
CQ8 RNb:34 VSS! 2.10114e-17 $lvl=2
CQ9 RNb:31 VSS! 7.11507e-18 $lvl=2
CQ10 RNb:29 VSS! 7.19323e-18 $lvl=2
CQ11 RNb:25 VSS! 7.00691e-18 $lvl=2
CQ12 RNb:37 VSS! 2.18185e-17 $lvl=2
CQ13 RNb:28 VSS! 7.4461e-18 $lvl=2
CQ14 RNb:32 VSS! 2.30899e-17 $lvl=2
CQ15 RNb:30 VSS! 1.43898e-17 $lvl=2
CQ16 RNb:21 VSS! 1.93412e-17 $lvl=3
CQ17 RNb:24 VSS! 1.20113e-17 $lvl=3
CQ18 RNb:32 n42:5 2.92251e-18 $lvl1=2 $lvl2=2
CQ19 RNb:34 n42:12 2.85626e-18 $lvl1=2 $lvl2=1
CQ20 RNb:34 Mmn52:s 2.29901e-18 $lvl1=2 $lvl2=4
CQ21 Mmn22:d n42:5 1.53817e-18 $lvl1=4 $lvl2=2
CQ22 RNb:19 n42 6.90522e-17 $lvl1=3 $lvl2=2
CQ23 RNb:34 n42:9 7.497e-18 $lvl1=2 $lvl2=1
CQ24 RNb:34 n42:5 1.64873e-17 $lvl1=2 $lvl2=2
CQ25 RNb:15 net402 1.4907e-18 $lvl1=3 $lvl2=2
CQ26 RNb:15 net402:4 7.40786e-19 $lvl1=3 $lvl2=2
CQ27 RNb:16 net402:3 5.38245e-19 $lvl1=3 $lvl2=2
CQ28 RNb:15 net402:3 6.75488e-17 $lvl1=3 $lvl2=2
CQ29 RNb:18 net426:7 6.55924e-17 $lvl1=3 $lvl2=2
CQ30 RNb:19 VSS!:9 8.59685e-18 $lvl1=3 $lvl2=2
CQ31 RNb:18 VSS!:13 8.58311e-18 $lvl1=3 $lvl2=2
CQ32 RNb:34 VSS!:6 3.4227e-18 $lvl1=2 $lvl2=2
CQ33 Mmn22:d VSS!:9 2.92131e-18 $lvl1=4 $lvl2=2
CQ34 RNb:34 VSS!:33 2.43034e-18 $lvl1=2 $lvl2=1
CQ35 RNb:34 VSS!:22 3.43884e-17 $lvl1=2 $lvl2=2
CQ36 RNb:34 VSS!:9 2.50943e-17 $lvl1=2 $lvl2=2
RfQ529 RNb:25 RNb:27 29.364706 $li  $L=0.39 $W=0.170000 $SI_W=0.17 $TYPE=10 $DIR=1 $LLX=7.395000 $LLY=3.355000 $URX=7.565000 $URY=3.745000 $lvl=2
RfQ530 RNb:27 RNb:28 53.063530 $li  $L=0.70475 $W=0.170000 $SI_W=0.17 $TYPE=10 $DIR=1 $LLX=7.395000 $LLY=2.650000 $URX=7.565000 $URY=3.355000 $lvl=2
RfQ531 RNb:28 RNb:29 85.477646 $li  $L=1.13525 $W=0.170000 $SI_W=0.17 $TYPE=10 $DIR=0 $LLX=6.345000 $LLY=2.565000 $URX=7.480000 $URY=2.735000 $lvl=2
RfQ532 RNb:29 RNb:30 25.581177 $li  $L=0.33975 $W=0.170000 $SI_W=0.17 $TYPE=10 $DIR=1 $LLX=6.180000 $LLY=2.310000 $URX=6.350000 $URY=2.650000 $lvl=2
RfQ533 RNb:30 RNb:31 42.560001 $li  $L=0.56525 $W=0.170000 $SI_W=0.17 $TYPE=10 $DIR=1 $LLX=6.180000 $LLY=1.745000 $URX=6.350000 $URY=2.310000 $lvl=2
RfQ534 RNb:31 RNb:32 81.712936 $li  $L=1.08525 $W=0.170000 $SI_W=0.17 $TYPE=10 $DIR=0 $LLX=6.265000 $LLY=1.545000 $URX=7.350000 $URY=1.715000 $lvl=2
RfQ535 RNb:32 RNb:34 77.195297 $li  $L=1.02525 $W=0.170000 $SI_W=0.17 $TYPE=10 $DIR=1 $LLX=7.265000 $LLY=0.605000 $URX=7.435000 $URY=1.630000 $lvl=2
RfQ536 RNb:34 RNb:35 15.811765 $li  $L=0.21 $W=0.170000 $SI_W=0.17 $TYPE=10 $DIR=1 $LLX=7.265000 $LLY=0.395000 $URX=7.435000 $URY=0.605000 $lvl=2
RfQ537 RNb:30 RNb:36 162.654114 $li  $L=2.16025 $W=0.170000 $SI_W=0.17 $TYPE=10 $DIR=0 $LLX=4.105000 $LLY=2.225000 $URX=6.265000 $URY=2.395000 $lvl=2
RfQ538 RNb:36 RNb:37 12.423529 $li  $L=0.165 $W=0.170000 $SI_W=0.17 $TYPE=10 $DIR=0 $LLX=3.940000 $LLY=2.225000 $URX=4.105000 $URY=2.395000 $lvl=2
RgQ539 RNb:15 Mmp31:g 173.519989 $poly  $L=0.54 $W=0.150000 $SI_W=0.15 $TYPE=10 $DIR=1 $LLX=4.090000 $LLY=3.355000 $URX=4.240000 $URY=3.895000 $lvl=3
RgQ540 Mmp31:g RNb:16 335.712982 $poly  $L=1.04475 $W=0.150000 $SI_W=0.15 $TYPE=10 $DIR=1 $LLX=4.090000 $LLY=2.310000 $URX=4.240000 $URY=3.355000 $lvl=3
RgQ541 RNb:16 RNb 547.070007 $poly  $L=1.7025 $W=0.150000 $SI_W=0.15 $TYPE=10 $DIR=1 $LLX=3.930000 $LLY=0.607500 $URX=4.080000 $URY=2.310000 $lvl=3