*
*|DSPF 1.5
*
*|DATE "Wed Jan  8 22:09:11 2025"
*|VENDOR "Cadence Design Systems"
*|PROGRAM "Cadence Quantus Extraction"
*|VERSION "22.1.0-p089 Linux 64 bit - (Thu Jan 19 11:47:08 PST 2023)"
*|DESIGN DFFSX4_HS
*|DIVIDER /
*|DELIMITER :
*|DeviceFingerDelim "@"
*|BUSBIT []
*|GLOBAL_TEMPERATURE 25
*|OPERATING_TEMPERATURE 25

** *VIA_COVERAGE_CODES
** *index FF FS FP FU SF SS SP SU PF PS PP PU UF US UP UU X_by_Y
** * "FF" stands for Full landing and Full coverage
** *0 0 0 0 0 0 0 0 0 0 0 0 0 0 0 0 0
** *1 0 0 0 0 0 0 0 0 0 0 0 0 0 0 0 1 1x1
** *2 0 0 0 0 0 0 0 0 0 0 0 0 0 0 1 0 1x1
** *3 0 0 0 0 0 0 0 0 0 0 0 0 0 1 0 0 1x1
** *4 0 0 0 0 0 0 0 0 0 0 0 0 1 0 0 0 1x1
** *5 0 0 0 0 0 0 0 0 0 0 0 1 0 0 0 0 1x1
** *6 0 0 0 0 0 0 0 0 0 0 1 0 0 0 0 0 1x1
** *7 0 0 0 0 0 0 0 0 0 1 0 0 0 0 0 0 1x1
** *8 0 0 0 0 0 0 0 0 1 0 0 0 0 0 0 0 1x1
** *9 0 0 0 0 0 0 0 1 0 0 0 0 0 0 0 0 1x1
** *10 0 0 0 0 0 0 1 0 0 0 0 0 0 0 0 0 1x1
** *11 0 0 0 0 0 1 0 0 0 0 0 0 0 0 0 0 1x1
** *12 0 0 0 0 1 0 0 0 0 0 0 0 0 0 0 0 1x1
** *13 0 0 0 1 0 0 0 0 0 0 0 0 0 0 0 0 1x1
** *14 0 0 1 0 0 0 0 0 0 0 0 0 0 0 0 0 1x1
** *15 0 1 0 0 0 0 0 0 0 0 0 0 0 0 0 0 1x1
** *16 1 0 0 0 0 0 0 0 0 0 0 0 0 0 0 0 1x1

** *RESISTOR_TYPES
** *1 SHORTING_ELEMENT
** *2 PRES_NG
** *3 PRES_PG
** *4 PRES_NF
** *5 PRES_PF
** *6 TCN_NDIFF
** *7 TCN_PDIFF
** *8 TCN_NFIELD
** *9 TCN_PFIELD
** *10 QUALITY_EXTRACTED
** *11 GCNLAND
** *12 TCNLAND
** *13 DUMMY
** *14 RSD
** *15 BRIDGE

** *RESISTOR_CURRENT_DIRECTION
** *0 HORIZONTAL
** *1 VERTICAL
** *2 45 DEGREE

** QRC_TECH_DIR /vols/wfo_devel/projects/reference_SKY130/tech/sky130_release_0.0.4/quantus/extraction/typical 
** HIERARCHICAL_SPLIT_PINS_DELIMITER '%'
** caps2d version: 10
*
.SUBCKT  DFFSX4_HS CK D Q QN SN
*
*Net Section
*
*|GROUND_NET VSS!
*
*LAYER_MAP
*0 none
*1 metal1
*2 li
*3 poly
*4 diff
*5 licon_diff
*6 mcon
*7 licon
*8 FOX

*|NET qbint 6.5087e-15
*|I (Mmp45:d Mmp45 d X 0 6.7505 3.1850) // $llx=6.7505 $lly=3.1850 $urx=6.7505 $ury=3.1850 $lvl=4
*|I (Mmp45@1:d Mmp45@1 d X 0 7.0295 3.1850) // $llx=7.0295 $lly=3.1850 $urx=7.0295 $ury=3.1850 $lvl=4
*|I (Mmp51:g Mmp51 g X 0 5.2950 3.3550) // $llx=5.2950 $lly=3.3550 $urx=5.2950 $ury=3.3550 $lvl=3
*|I (Mmp55@1:g Mmp55@1 g X 0 8.4850 3.0150) // $llx=8.4850 $lly=3.0150 $urx=8.4850 $ury=3.0150 $lvl=3
*|I (Mmp55:g Mmp55 g X 0 8.9150 3.0150) // $llx=8.9150 $lly=3.0150 $urx=8.9150 $ury=3.0150 $lvl=3
*|I (Mmp55@3:g Mmp55@3 g X 0 9.3450 3.0150) // $llx=9.3450 $lly=3.0150 $urx=9.3450 $ury=3.0150 $lvl=3
*|I (Mmp55@2:g Mmp55@2 g X 0 9.7750 3.0150) // $llx=9.7750 $lly=3.0150 $urx=9.7750 $ury=3.0150 $lvl=3
*|I (Mmp56:g Mmp56 g X 0 8.0550 3.0150) // $llx=8.0550 $lly=3.0150 $urx=8.0550 $ury=3.0150 $lvl=3
*|I (Mmn45:d Mmn45 d X 0 6.7505 0.6950) // $llx=6.7505 $lly=0.6950 $urx=6.7505 $ury=0.6950 $lvl=4
*|I (Mmn45@1:d Mmn45@1 d X 0 7.0295 0.6950) // $llx=7.0295 $lly=0.6950 $urx=7.0295 $ury=0.6950 $lvl=4
*|I (Mmn55@2:g Mmn55@2 g X 0 8.4850 0.7750) // $llx=8.4850 $lly=0.7750 $urx=8.4850 $ury=0.7750 $lvl=3
*|I (Mmn55@3:g Mmn55@3 g X 0 8.9150 0.7750) // $llx=8.9150 $lly=0.7750 $urx=8.9150 $ury=0.7750 $lvl=3
*|I (Mmn55:g Mmn55 g X 0 9.3450 0.7750) // $llx=9.3450 $lly=0.7750 $urx=9.3450 $ury=0.7750 $lvl=3
*|I (Mmn55@1:g Mmn55@1 g X 0 9.7750 0.7750) // $llx=9.7750 $lly=0.7750 $urx=9.7750 $ury=0.7750 $lvl=3
*|I (Mmn51:g Mmn51 g X 0 5.2950 0.6075) // $llx=5.2950 $lly=0.6075 $urx=5.2950 $ury=0.6075 $lvl=3
*|I (Mmn56:g Mmn56 g X 0 8.0550 0.7750) // $llx=8.0550 $lly=0.7750 $urx=8.0550 $ury=0.7750 $lvl=3
*|S (qbint 5.2950 0.6075) // $llx=5.2950 $lly=0.6075 $urx=5.2950 $ury=0.6075 $lvl=3
*|S (qbint:43 5.2950 3.8950) // $llx=5.2950 $lly=3.8950 $urx=5.2950 $ury=3.8950 $lvl=3
*|S (qbint:44 5.2950 1.7750) // $llx=5.2950 $lly=1.7750 $urx=5.2950 $ury=1.7750 $lvl=3
*|S (qbint:45 5.2950 1.6100) // $llx=5.2950 $lly=1.6100 $urx=5.2950 $ury=1.6100 $lvl=3
*|S (qbint:46 5.2950 0.2450) // $llx=5.2950 $lly=0.2450 $urx=5.2950 $ury=0.2450 $lvl=3
*|S (qbint:47 9.7750 3.8950) // $llx=9.7750 $lly=3.8950 $urx=9.7750 $ury=3.8950 $lvl=3
*|S (qbint:48 9.7750 1.7750) // $llx=9.7750 $lly=1.7750 $urx=9.7750 $ury=1.7750 $lvl=3
*|S (qbint:49 9.3450 1.7750) // $llx=9.3450 $lly=1.7750 $urx=9.3450 $ury=1.7750 $lvl=3
*|S (qbint:50 8.9150 1.7750) // $llx=8.9150 $lly=1.7750 $urx=8.9150 $ury=1.7750 $lvl=3
*|S (qbint:51 9.7750 0.2450) // $llx=9.7750 $lly=0.2450 $urx=9.7750 $ury=0.2450 $lvl=3
*|S (qbint:52 9.3450 0.2450) // $llx=9.3450 $lly=0.2450 $urx=9.3450 $ury=0.2450 $lvl=3
*|S (qbint:53 9.3450 3.8950) // $llx=9.3450 $lly=3.8950 $urx=9.3450 $ury=3.8950 $lvl=3
*|S (qbint:54 8.9150 0.2450) // $llx=8.9150 $lly=0.2450 $urx=8.9150 $ury=0.2450 $lvl=3
*|S (qbint:55 8.4850 1.7750) // $llx=8.4850 $lly=1.7750 $urx=8.4850 $ury=1.7750 $lvl=3
*|S (qbint:56 8.4850 0.2450) // $llx=8.4850 $lly=0.2450 $urx=8.4850 $ury=0.2450 $lvl=3
*|S (qbint:57 8.9150 3.8950) // $llx=8.9150 $lly=3.8950 $urx=8.9150 $ury=3.8950 $lvl=3
*|S (qbint:58 8.0550 1.7750) // $llx=8.0550 $lly=1.7750 $urx=8.0550 $ury=1.7750 $lvl=3
*|S (qbint:59 8.0550 0.2450) // $llx=8.0550 $lly=0.2450 $urx=8.0550 $ury=0.2450 $lvl=3
*|S (qbint:60 8.4850 3.8950) // $llx=8.4850 $lly=3.8950 $urx=8.4850 $ury=3.8950 $lvl=3
*|S (qbint:61 8.0550 3.8950) // $llx=8.0550 $lly=3.8950 $urx=8.0550 $ury=3.8950 $lvl=3
*|S (qbint:62 6.8900 3.7450) // $llx=6.8900 $lly=3.7450 $urx=6.8900 $ury=3.7450 $lvl=2
*|S (qbint:64 6.8900 3.1850) // $llx=6.8900 $lly=3.1850 $urx=6.8900 $ury=3.1850 $lvl=2
*|S (qbint:65 6.8900 2.7950) // $llx=6.8900 $lly=2.7950 $urx=6.8900 $ury=2.7950 $lvl=2
*|S (qbint:66 6.8900 0.9950) // $llx=6.8900 $lly=0.9950 $urx=6.8900 $ury=0.9950 $lvl=2
*|S (qbint:67 6.8900 0.6950) // $llx=6.8900 $lly=0.6950 $urx=6.8900 $ury=0.6950 $lvl=2
*|S (qbint:70 6.8900 0.3950) // $llx=6.8900 $lly=0.3950 $urx=6.8900 $ury=0.3950 $lvl=2
*|S (qbint:71 9.7250 1.7750) // $llx=9.7250 $lly=1.7750 $urx=9.7250 $ury=1.7750 $lvl=2
*|S (qbint:72 8.9150 1.7750) // $llx=8.9150 $lly=1.7750 $urx=8.9150 $ury=1.7750 $lvl=2
*|S (qbint:73 6.8900 1.7750) // $llx=6.8900 $lly=1.7750 $urx=6.8900 $ury=1.7750 $lvl=2
*|S (qbint:74 5.2950 1.7750) // $llx=5.2950 $lly=1.7750 $urx=5.2950 $ury=1.7750 $lvl=2
*|S (qbint:75 5.1300 1.7750) // $llx=5.1300 $lly=1.7750 $urx=5.1300 $ury=1.7750 $lvl=2
*|S (qbint:76 6.8900 3.1200) // $llx=6.8900 $lly=3.1200 $urx=6.8900 $ury=3.1200 $lvl=1
*|S (qbint:77 6.8900 2.7950) // $llx=6.8900 $lly=2.7950 $urx=6.8900 $ury=2.7950 $lvl=1
*|S (qbint:78 6.8900 1.7750) // $llx=6.8900 $lly=1.7750 $urx=6.8900 $ury=1.7750 $lvl=1
*|S (qbint:79 6.8900 0.6950) // $llx=6.8900 $lly=0.6950 $urx=6.8900 $ury=0.6950 $lvl=1
*|S (qbint:80 6.8900 0.5500) // $llx=6.8900 $lly=0.5500 $urx=6.8900 $ury=0.5500 $lvl=1
CM1 Mmn56:g VSS! 2.24733e-18 $lvl=3
CM2 Mmn55@1:g VSS! 2.71852e-18 $lvl=3
CM3 Mmn55:g VSS! 2.61026e-18 $lvl=3
CM4 Mmn55@3:g VSS! 2.76683e-18 $lvl=3
CM5 Mmn45:d VSS! 2.27127e-18 $lvl=4
CM6 Mmp55@3:g VSS! 2.01728e-18 $lvl=3
CM7 Mmp45:d VSS! 3.10926e-18 $lvl=4
CM8 qbint:78 VSS! 1.73311e-17 $lvl=1
CM9 qbint:77 VSS! 1.59809e-17 $lvl=1
CM10 qbint:76 VSS! 5.96671e-18 $lvl=1
CM11 qbint:80 VSS! 1.18129e-17 $lvl=1
CM12 qbint:47 VSS! 4.14994e-18 $lvl=3
CM13 qbint:57 VSS! 1.94521e-18 $lvl=3
CM14 qbint:60 VSS! 3.43025e-18 $lvl=3
CM15 qbint:61 VSS! 1.37932e-18 $lvl=3
CM16 qbint:56 VSS! 1.99607e-18 $lvl=3
CM17 qbint:43 VSS! 4.64057e-18 $lvl=3
CM18 qbint:72 VSS! 1.76495e-17 $lvl=2
CM19 qbint:75 VSS! 1.95021e-17 $lvl=2
CM20 qbint:66 VSS! 5.41973e-18 $lvl=2
CM21 qbint:70 VSS! 2.13005e-18 $lvl=2
CM22 qbint:62 VSS! 9.46305e-18 $lvl=2
CM23 qbint:67 VSS! 4.78656e-18 $lvl=2
CM24 qbint:73 VSS! 2.33837e-17 $lvl=2
CM25 qbint:65 VSS! 2.39643e-18 $lvl=2
CM26 qbint:44 VSS! 2.83125e-17 $lvl=3
CM27 qbint:50 VSS! 5.69442e-17 $lvl=3
CM28 qbint VSS! 5.74987e-18 $lvl=3
CM29 qbint n42 4.78574e-19 $lvl1=3 $lvl2=2
CM30 qbint n42:4 4.58533e-19 $lvl1=3 $lvl2=2
CM31 qbint:44 n42:3 3.20638e-19 $lvl1=3 $lvl2=2
CM32 qbint:44 n42 2.25404e-19 $lvl1=3 $lvl2=2
CM33 qbint:80 n42:3 2.08888e-19 $lvl1=1 $lvl2=2
CM34 qbint:75 n42:3 1.97889e-19 $lvl1=2 $lvl2=2
CM35 qbint n40 6.36782e-19 $lvl1=3 $lvl2=2
CM36 qbint n42:3 6.41881e-17 $lvl1=3 $lvl2=2
CM37 qbint n40:3 6.42678e-17 $lvl1=3 $lvl2=2
CM38 qbint:78 net331:56 9.7454e-18 $lvl1=1 $lvl2=1
CM39 qbint:72 net331:56 9.65927e-18 $lvl1=2 $lvl2=1
CM40 qbint:80 net331:58 8.98847e-18 $lvl1=1 $lvl2=1
CM41 qbint:73 net331:57 5.01951e-18 $lvl1=2 $lvl2=1
CM42 qbint:73 net331:42 4.60889e-18 $lvl1=2 $lvl2=2
CM43 qbint:80 net331:57 4.17776e-18 $lvl1=1 $lvl2=1
CM44 qbint:73 net331:56 3.94392e-18 $lvl1=2 $lvl2=1
CM45 qbint:73 net331:54 3.88339e-18 $lvl1=2 $lvl2=2
CM46 qbint:78 net331:58 3.48116e-18 $lvl1=1 $lvl2=1
CM47 qbint:50 net331:42 2.87123e-18 $lvl1=3 $lvl2=2
CM48 qbint:76 net331:56 2.83231e-18 $lvl1=1 $lvl2=1
CM49 Mmn55@1:g net331:52 2.67522e-18 $lvl1=3 $lvl2=2
CM50 qbint:56 net331:54 2.63544e-18 $lvl1=3 $lvl2=2
CM51 Mmn55:g net331:52 2.60896e-18 $lvl1=3 $lvl2=2
CM52 qbint:62 net331:42 2.4914e-18 $lvl1=2 $lvl2=2
CM53 qbint:77 net331:42 2.39702e-18 $lvl1=1 $lvl2=2
CM54 Mmn56:g net331:54 2.36982e-18 $lvl1=3 $lvl2=2
CM55 qbint:77 net331:57 2.34927e-18 $lvl1=1 $lvl2=1
CM56 Mmn55@3:g net331:54 1.86616e-18 $lvl1=3 $lvl2=2
CM57 qbint:62 net331:56 1.71322e-18 $lvl1=2 $lvl2=1
CM58 qbint:77 net331:55 1.58504e-18 $lvl1=1 $lvl2=1
CM59 qbint:50 net331:32 1.48698e-18 $lvl1=3 $lvl2=3
CM60 qbint:73 net331:53 1.39215e-18 $lvl1=2 $lvl2=2
CM61 qbint:80 net331:59 1.31392e-18 $lvl1=1 $lvl2=1
CM62 qbint:72 net331:45 1.28342e-18 $lvl1=2 $lvl2=2
CM63 qbint:80 net331:56 1.17847e-18 $lvl1=1 $lvl2=1
CM64 qbint:77 net331:45 1.15949e-18 $lvl1=1 $lvl2=2
CM65 qbint:78 net331:42 1.09734e-18 $lvl1=1 $lvl2=2
CM66 qbint:73 net331:46 1.04029e-18 $lvl1=2 $lvl2=2
CM67 qbint:72 net331:46 1.02887e-18 $lvl1=2 $lvl2=2
CM68 qbint:76 net331:55 9.82385e-19 $lvl1=1 $lvl2=1
CM69 qbint:50 net331:46 9.63933e-19 $lvl1=3 $lvl2=2
CM70 Mmn55@1:g net331:32 8.37304e-19 $lvl1=3 $lvl2=3
CM71 qbint:56 net331:46 8.14934e-19 $lvl1=3 $lvl2=2
CM72 qbint:78 net331:54 8.08969e-19 $lvl1=1 $lvl2=2
CM73 qbint:50 net331:54 3.21996e-17 $lvl1=3 $lvl2=2
CM74 Mmn56:g net331:46 1.24499e-16 $lvl1=3 $lvl2=2
CM75 qbint:78 net331:57 1.10484e-17 $lvl1=1 $lvl2=1
CM76 qbint:72 net331:57 1.34444e-17 $lvl1=2 $lvl2=1
CM77 qbint:61 net331:42 2.50656e-16 $lvl1=3 $lvl2=2
CM78 qbint:72 net331:52 4.24137e-17 $lvl1=2 $lvl2=2
CM79 qbint:72 net331:53 1.17545e-17 $lvl1=2 $lvl2=2
CM80 qbint:72 net331:54 8.35577e-17 $lvl1=2 $lvl2=2
CM81 qbint:50 net331:52 2.21572e-17 $lvl1=3 $lvl2=2
CM82 qbint:72 net331:42 1.12587e-17 $lvl1=2 $lvl2=2
CM83 qbint:77 net331:56 1.7183e-17 $lvl1=1 $lvl2=1
CM84 qbint:75 CKbb:54 7.72083e-18 $lvl1=2 $lvl2=1
CM85 qbint:75 CKbb:51 7.51326e-18 $lvl1=2 $lvl2=1
CM86 qbint:78 CKbb:54 2.30405e-18 $lvl1=1 $lvl2=1
CM87 qbint:44 CKbb:26 2.05094e-18 $lvl1=3 $lvl2=3
CM88 qbint:80 CKbb:54 2.03899e-18 $lvl1=1 $lvl2=1
CM89 qbint:78 CKbb:51 1.59002e-18 $lvl1=1 $lvl2=1
CM90 qbint:80 VSS!:36 9.82436e-18 $lvl1=1 $lvl2=2
CM91 qbint:80 VSS!:38 9.21003e-18 $lvl1=1 $lvl2=2
CM92 qbint:56 VSS!:11 8.73852e-18 $lvl1=3 $lvl2=2
CM93 Mmn55:g VSS!:10 8.15718e-18 $lvl1=3 $lvl2=2
CM94 qbint:70 VSS!:12 7.74059e-18 $lvl1=2 $lvl2=2
CM95 Mmn55@1:g VSS!:10 7.62127e-18 $lvl1=3 $lvl2=2
CM96 qbint:67 VSS!:36 7.51608e-18 $lvl1=2 $lvl2=2
CM97 qbint:67 VSS!:38 7.29976e-18 $lvl1=2 $lvl2=2
CM98 qbint:70 VSS!:38 7.23903e-18 $lvl1=2 $lvl2=2
CM99 qbint:70 VSS!:36 6.51536e-18 $lvl1=2 $lvl2=2
CM100 qbint VSS!:17 6.40064e-18 $lvl1=3 $lvl2=2
CM101 Mmn55@3:g VSS!:10 6.14168e-18 $lvl1=3 $lvl2=2
CM102 qbint:78 VSS!:54 5.00272e-18 $lvl1=1 $lvl2=1
CM103 Mmn55@3:g VSS!:11 3.61328e-18 $lvl1=3 $lvl2=2
CM104 Mmn56:g VSS!:11 3.48586e-18 $lvl1=3 $lvl2=2
CM105 qbint:50 VSS!:30 2.77303e-18 $lvl1=3 $lvl2=2
CM106 qbint:66 VSS!:13 2.61707e-18 $lvl1=2 $lvl2=2
CM107 qbint:50 VSS!:33 2.58515e-18 $lvl1=3 $lvl2=2
CM108 qbint:80 VSS!:42 2.53761e-18 $lvl1=1 $lvl2=2
CM109 qbint:78 VSS!:53 2.43334e-18 $lvl1=1 $lvl2=1
CM110 qbint:70 VSS!:54 2.24191e-18 $lvl1=2 $lvl2=1
CM111 qbint:70 VSS!:15 2.21579e-18 $lvl1=2 $lvl2=2
CM112 Mmn56:g VSS!:12 2.03548e-18 $lvl1=3 $lvl2=2
CM113 Mmn45:d VSS!:13 1.97029e-18 $lvl1=4 $lvl2=2
CM114 qbint:80 VSS!:15 1.84447e-18 $lvl1=1 $lvl2=2
CM115 qbint:77 VSS!:54 1.74108e-18 $lvl1=1 $lvl2=1
CM116 qbint:66 VSS!:12 1.73763e-18 $lvl1=2 $lvl2=2
CM117 qbint:78 VSS!:36 1.6761e-18 $lvl1=1 $lvl2=2
CM118 qbint:80 VSS!:13 1.49017e-18 $lvl1=1 $lvl2=2
CM119 qbint:80 VSS!:12 1.45462e-18 $lvl1=1 $lvl2=2
CM120 qbint:78 VSS!:38 1.40076e-18 $lvl1=1 $lvl2=2
CM121 qbint:56 VSS!:30 1.33092e-18 $lvl1=3 $lvl2=2
CM122 Mmn55:g VSS!:11 1.11637e-18 $lvl1=3 $lvl2=2
CM123 qbint:73 VSS!:36 1.08536e-18 $lvl1=2 $lvl2=2
CM124 qbint:75 VSS!:42 1.05073e-18 $lvl1=2 $lvl2=2
CM125 Mmn55@3:g VSS!:33 1.04825e-18 $lvl1=3 $lvl2=2
CM126 qbint:78 VSS!:42 1.0301e-18 $lvl1=1 $lvl2=2
CM127 qbint:66 VSS!:36 2.02639e-17 $lvl1=2 $lvl2=2
CM128 qbint:80 VSS!:53 1.26572e-17 $lvl1=1 $lvl2=1
CM129 qbint:66 VSS!:38 2.51069e-17 $lvl1=2 $lvl2=2
CM130 Mmn56:g VSS!:33 1.31978e-16 $lvl1=3 $lvl2=2
CM131 Mmn55@1:g VSS!:27 1.16932e-16 $lvl1=3 $lvl2=2
CM132 qbint:56 VSS!:33 1.38756e-16 $lvl1=3 $lvl2=2
CM133 qbint:70 VSS!:13 1.0045e-17 $lvl1=2 $lvl2=2
CM134 qbint:80 VSS!:54 3.41756e-17 $lvl1=1 $lvl2=1
CM135 Mmn55@3:g VSS!:30 1.24878e-16 $lvl1=3 $lvl2=2
CM136 Mmn55:g VSS!:30 1.27695e-16 $lvl1=3 $lvl2=2
ReM443 qbint:76 qbint:77 0.176630 $metal1  $L=0.325 $W=0.230000 $SI_W=0.23 $TYPE=10 $DIR=1 $LLX=6.775000 $LLY=2.795000 $URX=7.005000 $URY=3.120000 $lvl=1
ReM444 qbint:77 qbint:78 0.554348 $metal1  $L=1.02 $W=0.230000 $SI_W=0.23 $TYPE=10 $DIR=1 $LLX=6.775000 $LLY=1.775000 $URX=7.005000 $URY=2.795000 $lvl=1
ReM445 qbint:78 qbint:79 0.586957 $metal1  $L=1.08 $W=0.230000 $SI_W=0.23 $TYPE=10 $DIR=1 $LLX=6.775000 $LLY=0.695000 $URX=7.005000 $URY=1.775000 $lvl=1
ReM446 qbint:79 qbint:80 0.078804 $metal1  $L=0.145 $W=0.230000 $SI_W=0.23 $TYPE=10 $DIR=1 $LLX=6.775000 $LLY=0.550000 $URX=7.005000 $URY=0.695000 $lvl=1
RfM447 qbint:62 qbint:64 42.164707 $li  $L=0.56 $W=0.170000 $SI_W=0.17 $TYPE=10 $DIR=1 $LLX=6.805000 $LLY=3.185000 $URX=6.975000 $URY=3.745000 $lvl=2
RfM448 qbint:64 qbint:65 16.639999 $li  $L=0.39 $W=0.170000 $SI_W=0.3 $TYPE=10 $DIR=1 $LLX=6.805000 $LLY=2.795000 $URX=6.975000 $URY=3.185000 $lvl=2
RfM449 qbint:66 qbint:67 22.588236 $li  $L=0.3 $W=0.170000 $SI_W=0.17 $TYPE=10 $DIR=1 $LLX=6.805000 $LLY=0.695000 $URX=6.975000 $URY=0.995000 $lvl=2
RfM450 qbint:67 qbint:70 22.588236 $li  $L=0.3 $W=0.170000 $SI_W=0.17 $TYPE=10 $DIR=1 $LLX=6.805000 $LLY=0.395000 $URX=6.975000 $URY=0.695000 $lvl=2
RfM451 qbint:71 qbint:72 60.988232 $li  $L=0.81 $W=0.170000 $SI_W=0.17 $TYPE=10 $DIR=0 $LLX=8.915000 $LLY=1.690000 $URX=9.725000 $URY=1.860000 $lvl=2
RfM452 qbint:72 qbint:73 152.470581 $li  $L=2.025 $W=0.170000 $SI_W=0.17 $TYPE=10 $DIR=0 $LLX=6.890000 $LLY=1.690000 $URX=8.915000 $URY=1.860000 $lvl=2
RfM453 qbint:73 qbint:74 120.094116 $li  $L=1.595 $W=0.170000 $SI_W=0.17 $TYPE=10 $DIR=0 $LLX=5.295000 $LLY=1.690000 $URX=6.890000 $URY=1.860000 $lvl=2
RfM454 qbint:74 qbint:75 12.423529 $li  $L=0.165 $W=0.170000 $SI_W=0.17 $TYPE=10 $DIR=0 $LLX=5.130000 $LLY=1.690000 $URX=5.295000 $URY=1.860000 $lvl=2
RgM455 qbint:43 Mmp51:g 173.519989 $poly  $L=0.54 $W=0.150000 $SI_W=0.15 $TYPE=10 $DIR=1 $LLX=5.220000 $LLY=3.355000 $URX=5.370000 $URY=3.895000 $lvl=3
RgM456 Mmp51:g qbint:44 488.865753 $poly  $L=1.58 $W=0.150000 $SI_W=0.15 $TYPE=10 $DIR=1 $LLX=5.220000 $LLY=1.775000 $URX=5.370000 $URY=3.355000 $lvl=3
RgM457 qbint:44 qbint:45 34.134449 $poly  $L=0.1645 $W=0.270000 $SI_W=0.27 $TYPE=10 $DIR=1 $LLX=5.160000 $LLY=1.610500 $URX=5.430000 $URY=1.775000 $lvl=3
RgM458 qbint:45 qbint 322.181305 $poly  $L=1.0025 $W=0.150000 $SI_W=0.15 $TYPE=10 $DIR=1 $LLX=5.220000 $LLY=0.607500 $URX=5.370000 $URY=1.610000 $lvl=3
RgM459 qbint qbint:46 116.483322 $poly  $L=0.3625 $W=0.150000 $SI_W=0.15 $TYPE=10 $DIR=1 $LLX=5.220000 $LLY=0.245000 $URX=5.370000 $URY=0.607500 $lvl=3
RgM460 qbint:47 Mmp55@2:g 282.773346 $poly  $L=0.88 $W=0.150000 $SI_W=0.15 $TYPE=10 $DIR=1 $LLX=9.700000 $LLY=3.015000 $URX=9.850000 $URY=3.895000 $lvl=3
RgM461 Mmp55@2:g qbint:48 398.373016 $poly  $L=1.23975 $W=0.150000 $SI_W=0.15 $TYPE=10 $DIR=1 $LLX=9.700000 $LLY=1.775000 $URX=9.850000 $URY=3.015000 $lvl=3
RgM462 qbint:48 qbint:49 76.762962 $poly  $L=0.43 $W=0.270000 $SI_W=0.27 $TYPE=10 $DIR=0 $LLX=9.345000 $LLY=1.640000 $URX=9.775000 $URY=1.910000 $lvl=3
RgM463 qbint:49 qbint:50 76.807594 $poly  $L=0.43025 $W=0.270000 $SI_W=0.27 $TYPE=10 $DIR=0 $LLX=8.915000 $LLY=1.640000 $URX=9.345000 $URY=1.910000 $lvl=3
RgM464 qbint:48 Mmn55@1:g 321.413666 $poly  $L=1.00025 $W=0.150000 $SI_W=0.15 $TYPE=10 $DIR=1 $LLX=9.700000 $LLY=0.775000 $URX=9.850000 $URY=1.775000 $lvl=3
RgM465 Mmn55@1:g qbint:51 170.306671 $poly  $L=0.53 $W=0.150000 $SI_W=0.15 $TYPE=10 $DIR=1 $LLX=9.700000 $LLY=0.245000 $URX=9.850000 $URY=0.775000 $lvl=3
RgM466 qbint:49 Mmn55:g 302.097961 $poly  $L=1.00025 $W=0.150000 $SI_W=0.15 $TYPE=10 $DIR=1 $LLX=9.270000 $LLY=0.775000 $URX=9.420000 $URY=1.775000 $lvl=3
RgM467 Mmn55:g qbint:52 170.306671 $poly  $L=0.53 $W=0.150000 $SI_W=0.15 $TYPE=10 $DIR=1 $LLX=9.270000 $LLY=0.245000 $URX=9.420000 $URY=0.775000 $lvl=3
RgM468 qbint:49 Mmp55@3:g 379.128723 $poly  $L=1.23975 $W=0.150000 $SI_W=0.15 $TYPE=10 $DIR=1 $LLX=9.270000 $LLY=1.775000 $URX=9.420000 $URY=3.015000 $lvl=3
RgM469 Mmp55@3:g qbint:53 282.773346 $poly  $L=0.88 $W=0.150000 $SI_W=0.15 $TYPE=10 $DIR=1 $LLX=9.270000 $LLY=3.015000 $URX=9.420000 $URY=3.895000 $lvl=3
RgM470 qbint:50 Mmn55@3:g 302.053345 $poly  $L=1 $W=0.150000 $SI_W=0.15 $TYPE=10 $DIR=1 $LLX=8.840000 $LLY=0.775000 $URX=8.990000 $URY=1.775000 $lvl=3
RgM471 Mmn55@3:g qbint:54 170.306671 $poly  $L=0.53 $W=0.150000 $SI_W=0.15 $TYPE=10 $DIR=1 $LLX=8.840000 $LLY=0.245000 $URX=8.990000 $URY=0.775000 $lvl=3
RgM472 qbint:50 qbint:55 76.718338 $poly  $L=0.42975 $W=0.270000 $SI_W=0.27 $TYPE=10 $DIR=0 $LLX=8.485000 $LLY=1.640000 $URX=8.915000 $URY=1.910000 $lvl=3
RgM473 qbint:55 Mmn55@2:g 302.097961 $poly  $L=1.00025 $W=0.150000 $SI_W=0.15 $TYPE=10 $DIR=1 $LLX=8.410000 $LLY=0.775000 $URX=8.560000 $URY=1.775000 $lvl=3
RgM474 Mmn55@2:g qbint:56 170.306671 $poly  $L=0.53 $W=0.150000 $SI_W=0.15 $TYPE=10 $DIR=1 $LLX=8.410000 $LLY=0.245000 $URX=8.560000 $URY=0.775000 $lvl=3
RgM475 qbint:50 Mmp55:g 379.173340 $poly  $L=1.24 $W=0.150000 $SI_W=0.15 $TYPE=10 $DIR=1 $LLX=8.840000 $LLY=1.775000 $URX=8.990000 $URY=3.015000 $lvl=3
RgM476 Mmp55:g qbint:57 282.773346 $poly  $L=0.88 $W=0.150000 $SI_W=0.15 $TYPE=10 $DIR=1 $LLX=8.840000 $LLY=3.015000 $URX=8.990000 $URY=3.895000 $lvl=3
RgM477 qbint:55 qbint:58 76.762962 $poly  $L=0.43 $W=0.270000 $SI_W=0.27 $TYPE=10 $DIR=0 $LLX=8.055000 $LLY=1.640000 $URX=8.485000 $URY=1.910000 $lvl=3
RgM478 qbint:58 Mmn56:g 321.413666 $poly  $L=1.00025 $W=0.150000 $SI_W=0.15 $TYPE=10 $DIR=1 $LLX=7.980000 $LLY=0.775000 $URX=8.130000 $URY=1.775000 $lvl=3
RgM479 Mmn56:g qbint:59 170.306671 $poly  $L=0.53 $W=0.150000 $SI_W=0.15 $TYPE=10 $DIR=1 $LLX=7.980000 $LLY=0.245000 $URX=8.130000 $URY=0.775000 $lvl=3
RgM480 qbint:55 Mmp55@1:g 379.128723 $poly  $L=1.23975 $W=0.150000 $SI_W=0.15 $TYPE=10 $DIR=1 $LLX=8.410000 $LLY=1.775000 $URX=8.560000 $URY=3.015000 $lvl=3
RgM481 Mmp55@1:g qbint:60 282.773346 $poly  $L=0.88 $W=0.150000 $SI_W=0.15 $TYPE=10 $DIR=1 $LLX=8.410000 $LLY=3.015000 $URX=8.560000 $URY=3.895000 $lvl=3
RgM482 qbint:58 Mmp56:g 398.373016 $poly  $L=1.23975 $W=0.150000 $SI_W=0.15 $TYPE=10 $DIR=1 $LLX=7.980000 $LLY=1.775000 $URX=8.130000 $URY=3.015000 $lvl=3
RgM483 Mmp56:g qbint:61 282.773346 $poly  $L=0.88 $W=0.150000 $SI_W=0.15 $TYPE=10 $DIR=1 $LLX=7.980000 $LLY=3.015000 $URX=8.130000 $URY=3.895000 $lvl=3
RhM484 Mmn45:d qbint:67 15.000000 $licon_diff  $L=0.17 $W=0.17 $A=0.0289 $VC=0 $SAVL=0 $SAVC=0 $SI_A=0.0289 $COVER_DIR=0 $LLX=0.000000 $LLY=0.000000 $URX=0.170000 $URY=0.170000 $lvl=5
Rh_2_M485 Mmp45:d qbint:64 5.000000 $licon_diff  $A=0.0867 $VC=0 $SAVL=0 $SAVC=0 $SI_A=0.0867 $COVER_DIR=0 $LLX=0.000000 $LLY=0.000000 $URX=-0.086700 $URY=-3.000000 $lvl=5
RjM486 qbint:65 qbint:77 76.000000 $mcon  $A=0.0578 $VC=0 $SAVL=0 $SAVC=0 $SI_A=0.0578 $COVER_DIR=0 $LLX=0.000000 $LLY=0.000000 $URX=-0.057800 $URY=-2.000000 $lvl=6
RjM487 qbint:73 qbint:78 152.000000 $mcon  $L=0.17 $W=0.17 $A=0.0289 $VC=0 $SAVL=0 $SAVC=0 $SI_A=0.0289 $COVER_DIR=0 $LLX=0.000000 $LLY=0.000000 $URX=0.170000 $URY=0.170000 $lvl=6
RjM488 qbint:67 qbint:79 152.000000 $mcon  $L=0.17 $W=0.17 $A=0.0289 $VC=0 $SAVL=0 $SAVC=0 $SI_A=0.0289 $COVER_DIR=0 $LLX=0.000000 $LLY=0.000000 $URX=0.170000 $URY=0.170000 $lvl=6
RiM489 qbint:50 qbint:72 3.750000 $licon  $A=0.1156 $VC=0 $SAVL=0 $SAVC=0 $SI_A=0.1156 $COVER_DIR=0 $LLX=0.000000 $LLY=0.000000 $URX=-0.115600 $URY=-4.000000 $lvl=7
RiM490 qbint:44 qbint:74 15.000000 $licon  $L=0.17 $W=0.17 $A=0.0289 $VC=0 $SAVL=0 $SAVC=0 $SI_A=0.0289 $COVER_DIR=0 $LLX=0.000000 $LLY=0.000000 $URX=0.170000 $URY=0.170000 $lvl=7
RmwM491 Mmp45@1:d Mmp45:d 0.001000 $diff $W=1000000 $SI_W=1000000 $TYPE=1 $DIR=0
RmwM492 Mmn45@1:d Mmn45:d 0.001000 $diff $W=1000000 $SI_W=1000000 $TYPE=1 $DIR=0
RmwM493 Mmn51:g qbint 0.001000 $poly $W=1000000 $SI_W=1000000 $TYPE=1 $DIR=0
*
*|NET SN 1.83368e-15
*|P (SN X 0 3.2350 1.9000) // $llx=3.2350 $lly=1.9000 $urx=3.2350 $ury=1.9000 $lvl=1
*|I (Mmp30:g Mmp30 g X 0 3.5750 3.3550) // $llx=3.5750 $lly=3.3550 $urx=3.5750 $ury=3.3550 $lvl=3
*|I (Mmp50:g Mmp50 g X 0 5.7250 3.3550) // $llx=5.7250 $lly=3.3550 $urx=5.7250 $ury=3.3550 $lvl=3
*|I (Mmn30:g Mmn30 g X 0 3.5750 0.6075) // $llx=3.5750 $lly=0.6075 $urx=3.5750 $ury=0.6075 $lvl=3
*|I (Mmn50:g Mmn50 g X 0 5.7250 0.6075) // $llx=5.7250 $lly=0.6075 $urx=5.7250 $ury=0.6075 $lvl=3
*|S (SN:15 3.5750 3.8950) // $llx=3.5750 $lly=3.8950 $urx=3.5750 $ury=3.8950 $lvl=3
*|S (SN:16 3.5150 2.2795) // $llx=3.5150 $lly=2.2795 $urx=3.5150 $ury=2.2795 $lvl=3
*|S (SN:17 3.5150 2.1150) // $llx=3.5150 $lly=2.1150 $urx=3.5150 $ury=2.1150 $lvl=3
*|S (SN:18 3.5150 1.9500) // $llx=3.5150 $lly=1.9500 $urx=3.5150 $ury=1.9500 $lvl=3
*|S (SN:19 3.5750 0.2450) // $llx=3.5750 $lly=0.2450 $urx=3.5750 $ury=0.2450 $lvl=3
*|S (SN:20 5.7250 3.8950) // $llx=5.7250 $lly=3.8950 $urx=5.7250 $ury=3.8950 $lvl=3
*|S (SN:21 5.7850 2.2795) // $llx=5.7850 $lly=2.2795 $urx=5.7850 $ury=2.2795 $lvl=3
*|S (SN:22 5.7850 2.1150) // $llx=5.7850 $lly=2.1150 $urx=5.7850 $ury=2.1150 $lvl=3
*|S (SN:23 5.7850 1.9500) // $llx=5.7850 $lly=1.9500 $urx=5.7850 $ury=1.9500 $lvl=3
*|S (SN:24 5.7250 0.2450) // $llx=5.7250 $lly=0.2450 $urx=5.7250 $ury=0.2450 $lvl=3
*|S (SN:25 5.9500 2.1150) // $llx=5.9500 $lly=2.1150 $urx=5.9500 $ury=2.1150 $lvl=2
*|S (SN:26 5.7850 2.1150) // $llx=5.7850 $lly=2.1150 $urx=5.7850 $ury=2.1150 $lvl=2
*|S (SN:27 3.5150 2.1150) // $llx=3.5150 $lly=2.1150 $urx=3.5150 $ury=2.1150 $lvl=2
*|S (SN:28 3.2250 2.1150) // $llx=3.2250 $lly=2.1150 $urx=3.2250 $ury=2.1150 $lvl=2
*|S (SN:29 3.0600 2.1150) // $llx=3.0600 $lly=2.1150 $urx=3.0600 $ury=2.1150 $lvl=2
*|S (SN:30 3.2200 2.5450) // $llx=3.2200 $lly=2.5450 $urx=3.2200 $ury=2.5450 $lvl=1
*|S (SN:31 3.2250 2.1150) // $llx=3.2250 $lly=2.1150 $urx=3.2250 $ury=2.1150 $lvl=1
*|S (SN:32 3.2200 1.3050) // $llx=3.2200 $lly=1.3050 $urx=3.2200 $ury=1.3050 $lvl=1
CE1 Mmn50:g VSS! 5.18358e-18 $lvl=3
CE2 SN:31 VSS! 1.03303e-17 $lvl=1
CE3 SN:30 VSS! 6.93976e-18 $lvl=1
CE4 SN:20 VSS! 3.3936e-18 $lvl=3
CE5 SN:15 VSS! 2.96738e-18 $lvl=3
CE6 SN:19 VSS! 2.64633e-18 $lvl=3
CE7 SN:27 VSS! 9.95974e-18 $lvl=2
CE8 SN:25 VSS! 1.41233e-17 $lvl=2
CE9 SN:29 VSS! 6.56184e-18 $lvl=2
CE10 SN:28 VSS! 3.85336e-18 $lvl=2
CE11 SN:17 VSS! 1.98552e-17 $lvl=3
CE12 SN:22 VSS! 2.05893e-17 $lvl=3
CE13 Mmn50:g n42 7.8474e-19 $lvl1=3 $lvl2=2
CE14 SN:19 n25 5.60677e-19 $lvl1=3 $lvl2=2
CE15 Mmn50:g n42:3 6.43702e-17 $lvl1=3 $lvl2=2
CE16 SN:19 n25:3 6.37878e-17 $lvl1=3 $lvl2=2
CE17 SN:29 CKbb:30 7.93267e-18 $lvl1=2 $lvl2=2
CE18 SN:25 CKbb:35 7.45356e-18 $lvl1=2 $lvl2=2
CE19 SN:27 CKbb:37 6.22519e-18 $lvl1=2 $lvl2=2
CE20 SN:29 CKbb:33 4.82302e-18 $lvl1=2 $lvl2=2
CE21 SN:30 CKbb:30 4.53555e-18 $lvl1=1 $lvl2=2
CE22 SN:28 CKbb:47 4.00982e-18 $lvl1=2 $lvl2=1
CE23 SN:27 CKbb:26 3.4255e-18 $lvl1=2 $lvl2=3
CE24 SN:25 CKbb:54 3.21927e-18 $lvl1=2 $lvl2=1
CE25 SN:28 CKbb:30 3.06036e-18 $lvl1=2 $lvl2=2
CE26 SN:31 CKbb:40 2.99585e-18 $lvl1=1 $lvl2=2
CE27 SN:19 CKbb:41 2.45927e-18 $lvl1=3 $lvl2=2
CE28 SN:17 CKbb:30 2.29046e-18 $lvl1=3 $lvl2=2
CE29 SN:29 CKbb:47 2.21137e-18 $lvl1=2 $lvl2=1
CE30 SN:22 CKbb:34 1.55134e-18 $lvl1=3 $lvl2=2
CE31 SN:19 CKbb:40 1.32481e-18 $lvl1=3 $lvl2=2
CE32 SN:30 CKbb:33 1.2248e-18 $lvl1=1 $lvl2=2
CE33 SN:22 CKbb:26 1.21756e-18 $lvl1=3 $lvl2=3
CE34 SN:28 CKbb:33 1.21435e-18 $lvl1=2 $lvl2=2
CE35 SN:17 CKbb:33 9.00174e-19 $lvl1=3 $lvl2=2
CE36 SN:17 CKbb:41 8.99427e-19 $lvl1=3 $lvl2=2
CE37 SN:19 CKbb:44 8.96548e-19 $lvl1=3 $lvl2=2
CE38 SN:15 CKbb:27 8.12597e-19 $lvl1=3 $lvl2=2
CE39 SN:31 CKbb:30 7.31742e-19 $lvl1=1 $lvl2=2
CE40 SN:27 CKbb:40 6.54242e-19 $lvl1=2 $lvl2=2
CE41 SN:30 CKbb:27 6.47875e-19 $lvl1=1 $lvl2=2
CE42 SN:17 CKbb:27 6.32312e-19 $lvl1=3 $lvl2=2
CE43 SN:17 CKbb:40 5.70263e-19 $lvl1=3 $lvl2=2
CE44 SN:27 CKbb:30 5.66727e-19 $lvl1=2 $lvl2=2
CE45 SN:27 CKbb:51 5.45245e-19 $lvl1=2 $lvl2=1
CE46 SN:29 CKbb:27 5.0128e-19 $lvl1=2 $lvl2=2
CE47 SN:30 CKbb:50 4.15646e-19 $lvl1=1 $lvl2=1
CE48 Mmn50:g CKbb:38 4.08537e-19 $lvl1=3 $lvl2=2
CE49 SN:31 CKbb:41 1.24485e-17 $lvl1=1 $lvl2=2
CE50 SN:30 CKbb:47 3.94564e-17 $lvl1=1 $lvl2=1
CE51 SN:31 CKbb:47 5.51409e-17 $lvl1=1 $lvl2=1
CE52 SN:25 CKbb:26 1.14251e-17 $lvl1=2 $lvl2=3
CE53 SN:31 CKbb:50 7.06742e-17 $lvl1=1 $lvl2=1
CE54 SN:25 CKbb:34 2.34451e-17 $lvl1=2 $lvl2=2
CE55 SN:25 CKbb:37 1.56556e-17 $lvl1=2 $lvl2=2
CE56 SN:25 CKbb:51 2.04211e-17 $lvl1=2 $lvl2=1
CE57 SN:22 qbint:44 6.26553e-18 $lvl1=3 $lvl2=3
CE58 SN:25 qbint:73 5.85418e-18 $lvl1=2 $lvl2=2
CE59 SN:22 qbint:73 4.3298e-18 $lvl1=3 $lvl2=2
CE60 SN:25 n41:12 4.55001e-18 $lvl1=2 $lvl2=1
CE61 SN:25 n41:10 3.3174e-18 $lvl1=2 $lvl2=2
CE62 SN:22 n41:10 2.4589e-18 $lvl1=3 $lvl2=2
CE63 SN:20 n41:10 2.0117e-18 $lvl1=3 $lvl2=2
CE64 SN:25 n41:14 1.45307e-18 $lvl1=2 $lvl2=1
CE65 SN:25 n41:5 1.23452e-18 $lvl1=2 $lvl2=2
CE66 SN:25 n41:9 1.08065e-18 $lvl1=2 $lvl2=2
CE67 SN:22 n41:12 8.38721e-19 $lvl1=3 $lvl2=1
CE68 SN:25 qbint:75 5.86311e-17 $lvl1=2 $lvl2=2
CE69 SN:25 qbint:44 1.39235e-17 $lvl1=2 $lvl2=3
CE70 SN:22 qbint:75 1.20924e-17 $lvl1=3 $lvl2=2
CE71 SN:20 n41:6 1.2857e-16 $lvl1=3 $lvl2=2
CE72 SN:27 n35:41 4.91809e-18 $lvl1=2 $lvl2=1
CE73 SN:25 n35:41 4.73389e-18 $lvl1=2 $lvl2=1
CE74 SN:27 n35:39 3.91267e-18 $lvl1=2 $lvl2=1
CE75 SN:25 n35:39 3.39772e-18 $lvl1=2 $lvl2=1
CE76 SN:25 n35:38 2.92334e-18 $lvl1=2 $lvl2=2
CE77 SN:22 n35:36 1.92534e-18 $lvl1=3 $lvl2=2
CE78 SN:25 n35:36 1.64724e-18 $lvl1=2 $lvl2=2
CE79 SN:27 n35:29 1.31006e-18 $lvl1=2 $lvl2=2
CE80 Mmn50:g n35:36 1.19465e-18 $lvl1=3 $lvl2=2
CE81 SN:31 n35:41 1.1557e-18 $lvl1=1 $lvl2=1
CE82 SN:31 mout:35 6.48909e-18 $lvl1=1 $lvl2=1
CE83 SN:31 mout:33 6.04955e-18 $lvl1=1 $lvl2=1
CE84 SN:27 mout:34 1.90577e-18 $lvl1=2 $lvl2=1
CE85 SN:31 mout:31 1.87859e-18 $lvl1=1 $lvl2=1
CE86 SN:27 mout:25 1.51928e-18 $lvl1=2 $lvl2=2
CE87 SN:30 mout:35 1.40314e-18 $lvl1=1 $lvl2=1
CE88 SN:25 mout:35 9.17067e-19 $lvl1=2 $lvl2=1
CE89 SN:15 mout:20 8.40342e-19 $lvl1=3 $lvl2=2
CE90 SN:30 mout:20 7.36669e-19 $lvl1=1 $lvl2=2
CE91 SN:30 mout:38 7.00065e-19 $lvl1=1 $lvl2=1
CE92 SN:30 mout:34 6.22708e-19 $lvl1=1 $lvl2=1
CE93 SN:17 mout:20 5.98859e-19 $lvl1=3 $lvl2=2
CE94 SN:31 mout:38 5.84478e-19 $lvl1=1 $lvl2=1
CE95 SN:15 mout:21 5.48203e-19 $lvl1=3 $lvl2=2
CE96 SN:17 mout:16 5.37375e-19 $lvl1=3 $lvl2=2
CE97 SN:31 mout:34 2.0535e-17 $lvl1=1 $lvl2=1
CE98 SN:15 mout:16 1.26862e-16 $lvl1=3 $lvl2=2
CE99 SN:27 mout:35 1.78075e-17 $lvl1=2 $lvl2=1
CE100 SN:31 n20:32 9.1587e-18 $lvl1=1 $lvl2=1
CE101 SN:17 n20:9 5.54711e-18 $lvl1=3 $lvl2=3
CE102 SN:17 n20:25 4.60685e-18 $lvl1=3 $lvl2=2
CE103 SN:27 n20:32 4.5895e-18 $lvl1=2 $lvl2=1
CE104 SN:31 n20:30 2.20435e-18 $lvl1=1 $lvl2=1
CE105 SN:31 n20:29 1.66917e-18 $lvl1=1 $lvl2=1
CE106 SN:30 n20:24 1.58193e-18 $lvl1=1 $lvl2=2
CE107 SN:30 n20:29 1.33845e-18 $lvl1=1 $lvl2=1
CE108 SN:15 n20:9 1.3225e-18 $lvl1=3 $lvl2=3
CE109 SN:29 n20:25 8.98779e-19 $lvl1=2 $lvl2=2
CE110 SN:30 n20:25 8.90406e-19 $lvl1=1 $lvl2=2
CE111 SN:31 n20:26 8.62755e-19 $lvl1=1 $lvl2=1
CE112 SN:31 n20:24 8.45031e-19 $lvl1=1 $lvl2=2
CE113 SN:28 n20:32 8.13145e-19 $lvl1=2 $lvl2=1
CE114 SN:28 n20:24 6.87126e-19 $lvl1=2 $lvl2=2
CE115 SN:27 n20:25 1.42486e-17 $lvl1=2 $lvl2=2
CE116 SN:30 n20:30 3.42834e-17 $lvl1=1 $lvl2=1
CE117 SN:27 n20:9 1.28115e-17 $lvl1=2 $lvl2=3
CE118 SN:27 n20:22 2.00904e-17 $lvl1=2 $lvl2=2
CE119 SN:30 n20:32 1.43253e-17 $lvl1=1 $lvl2=1
CE120 SN:27 n20:24 1.18289e-17 $lvl1=2 $lvl2=2
CE121 SN:27 CKb:39 8.5923e-18 $lvl1=2 $lvl2=3
CE122 SN:28 CKb:54 8.08053e-18 $lvl1=2 $lvl2=2
CE123 SN:25 CKb:39 7.27436e-18 $lvl1=2 $lvl2=3
CE124 SN:17 CKb:52 3.98282e-18 $lvl1=3 $lvl2=2
CE125 SN:31 CKb:52 3.51285e-18 $lvl1=1 $lvl2=2
CE126 SN:29 CKb:34 2.2972e-18 $lvl1=2 $lvl2=3
CE127 SN:27 CKb:52 6.27256e-17 $lvl1=2 $lvl2=2
CE128 SN:27 CKb:54 1.85071e-17 $lvl1=2 $lvl2=2
CE129 SN:25 CKb:52 1.57506e-17 $lvl1=2 $lvl2=2
CE130 SN:17 CKb:54 1.22664e-17 $lvl1=3 $lvl2=2
CE131 SN:29 CKb:54 2.5677e-17 $lvl1=2 $lvl2=2
CE132 SN:31 CKb:54 1.93409e-17 $lvl1=1 $lvl2=2
CE133 Mmn50:g VSS!:17 8.08523e-18 $lvl1=3 $lvl2=2
CE134 SN:19 VSS!:17 7.07759e-18 $lvl1=3 $lvl2=2
CE135 SN:31 VSS!:54 3.68777e-18 $lvl1=1 $lvl2=1
CE136 SN:19 VSS!:45 7.02739e-17 $lvl1=3 $lvl2=2
CE137 Mmn50:g VSS!:42 6.9331e-17 $lvl1=3 $lvl2=2
CE138 SN:20 VDD!:16 8.82125e-18 $lvl1=3 $lvl2=2
CE139 SN:15 VDD!:5 7.25073e-18 $lvl1=3 $lvl2=2
CE140 SN:31 VDD! 5.60659e-18 $lvl1=1 $lvl2=1
CE141 SN:25 VDD! 5.00818e-18 $lvl1=2 $lvl2=1
CE142 SN:27 VDD! 3.50855e-18 $lvl1=2 $lvl2=1
CE143 SN:25 VDD!:23 2.70809e-18 $lvl1=2 $lvl2=2
CE144 SN:20 VDD!:23 2.52749e-18 $lvl1=3 $lvl2=2
CE145 SN:22 VDD!:23 2.51993e-18 $lvl1=3 $lvl2=2
CE146 SN:29 VDD! 2.12722e-18 $lvl1=2 $lvl2=1
CE147 SN:25 VDD!:19 1.77261e-18 $lvl1=2 $lvl2=2
CE148 SN:31 VDD!:53 1.73274e-18 $lvl1=1 $lvl2=1
CE149 SN:30 VDD! 1.56133e-18 $lvl1=1 $lvl2=1
CE150 SN:15 VDD!:15 1.24651e-16 $lvl1=3 $lvl2=2
CE151 SN:20 VDD!:19 1.3105e-16 $lvl1=3 $lvl2=2
CE152 SN:17 VDD! 1.01598e-17 $lvl1=3 $lvl2=1
CE153 SN:22 VDD! 1.24096e-17 $lvl1=3 $lvl2=1