*
*|DSPF 1.5
*
*|DATE "Wed Jan  8 22:15:06 2025"
*|VENDOR "Cadence Design Systems"
*|PROGRAM "Cadence Quantus Extraction"
*|VERSION "22.1.0-p089 Linux 64 bit - (Thu Jan 19 11:47:08 PST 2023)"
*|DESIGN DFFSX1_HS
*|DIVIDER /
*|DELIMITER :
*|DeviceFingerDelim "@"
*|BUSBIT []
*|GLOBAL_TEMPERATURE 25
*|OPERATING_TEMPERATURE 25

** *VIA_COVERAGE_CODES
** *index FF FS FP FU SF SS SP SU PF PS PP PU UF US UP UU X_by_Y
** * "FF" stands for Full landing and Full coverage
** *0 0 0 0 0 0 0 0 0 0 0 0 0 0 0 0 0
** *1 0 0 0 0 0 0 0 0 0 0 0 0 0 0 0 1 1x1
** *2 0 0 0 0 0 0 0 0 0 0 0 0 0 0 1 0 1x1
** *3 0 0 0 0 0 0 0 0 0 0 0 0 0 1 0 0 1x1
** *4 0 0 0 0 0 0 0 0 0 0 0 0 1 0 0 0 1x1
** *5 0 0 0 0 0 0 0 0 0 0 0 1 0 0 0 0 1x1
** *6 0 0 0 0 0 0 0 0 0 0 1 0 0 0 0 0 1x1
** *7 0 0 0 0 0 0 0 0 0 1 0 0 0 0 0 0 1x1
** *8 0 0 0 0 0 0 0 0 1 0 0 0 0 0 0 0 1x1
** *9 0 0 0 0 0 0 0 1 0 0 0 0 0 0 0 0 1x1
** *10 0 0 0 0 0 0 1 0 0 0 0 0 0 0 0 0 1x1
** *11 0 0 0 0 0 1 0 0 0 0 0 0 0 0 0 0 1x1
** *12 0 0 0 0 1 0 0 0 0 0 0 0 0 0 0 0 1x1
** *13 0 0 0 1 0 0 0 0 0 0 0 0 0 0 0 0 1x1
** *14 0 0 1 0 0 0 0 0 0 0 0 0 0 0 0 0 1x1
** *15 0 1 0 0 0 0 0 0 0 0 0 0 0 0 0 0 1x1
** *16 1 0 0 0 0 0 0 0 0 0 0 0 0 0 0 0 1x1

** *RESISTOR_TYPES
** *1 SHORTING_ELEMENT
** *2 PRES_NG
** *3 PRES_PG
** *4 PRES_NF
** *5 PRES_PF
** *6 TCN_NDIFF
** *7 TCN_PDIFF
** *8 TCN_NFIELD
** *9 TCN_PFIELD
** *10 QUALITY_EXTRACTED
** *11 GCNLAND
** *12 TCNLAND
** *13 DUMMY
** *14 RSD
** *15 BRIDGE

** *RESISTOR_CURRENT_DIRECTION
** *0 HORIZONTAL
** *1 VERTICAL
** *2 45 DEGREE

** QRC_TECH_DIR /vols/wfo_devel/projects/reference_SKY130/tech/sky130_release_0.0.4/quantus/extraction/typical 
** HIERARCHICAL_SPLIT_PINS_DELIMITER '%'
** caps2d version: 10
*
.SUBCKT  DFFSX1_HS CK D Q QN SN
*
*Net Section
*
*|GROUND_NET VSS!
*
*LAYER_MAP
*0 none
*1 metal1
*2 li
*3 poly
*4 diff
*5 licon_diff
*6 mcon
*7 licon
*8 FOX

*|NET CKbb 3.37399e-15
*|I (Mmp26:g Mmp26 g X 0 1.3350 3.3550) // $llx=1.3350 $lly=3.3550 $urx=1.3350 $ury=3.3550 $lvl=3
*|I (Mmp21:d Mmp21 d X 0 2.7005 3.3550) // $llx=2.7005 $lly=3.3550 $urx=2.7005 $ury=3.3550 $lvl=4
*|I (Mmp52:g Mmp52 g X 0 4.8650 3.3550) // $llx=4.8650 $lly=3.3550 $urx=4.8650 $ury=3.3550 $lvl=3
*|I (Mmn21:d Mmn21 d X 0 2.7005 0.6075) // $llx=2.7005 $lly=0.6075 $urx=2.7005 $ury=0.6075 $lvl=4
*|I (Mmn40:g Mmn40 g X 0 4.4350 0.6075) // $llx=4.4350 $lly=0.6075 $urx=4.4350 $ury=0.6075 $lvl=3
*|I (Mmn35:g Mmn35 g X 0 1.7650 0.6075) // $llx=1.7650 $lly=0.6075 $urx=1.7650 $ury=0.6075 $lvl=3
*|S (CKbb 1.7650 0.6075) // $llx=1.7650 $lly=0.6075 $urx=1.7650 $ury=0.6075 $lvl=3
*|S (CKbb:15 1.3350 3.8950) // $llx=1.3350 $lly=3.8950 $urx=1.3350 $ury=3.8950 $lvl=3
*|S (CKbb:16 1.3350 2.6745) // $llx=1.3350 $lly=2.6745 $urx=1.3350 $ury=2.6745 $lvl=3
*|S (CKbb:17 1.3350 2.5100) // $llx=1.3350 $lly=2.5100 $urx=1.3350 $ury=2.5100 $lvl=3
*|S (CKbb:18 1.7650 0.2450) // $llx=1.7650 $lly=0.2450 $urx=1.7650 $ury=0.2450 $lvl=3
*|S (CKbb:19 1.7550 0.9300) // $llx=1.7550 $lly=0.9300 $urx=1.7550 $ury=0.9300 $lvl=3
*|S (CKbb:20 1.7550 1.0950) // $llx=1.7550 $lly=1.0950 $urx=1.7550 $ury=1.0950 $lvl=3
*|S (CKbb:21 4.4350 0.2450) // $llx=4.4350 $lly=0.2450 $urx=4.4350 $ury=0.2450 $lvl=3
*|S (CKbb:22 4.4350 0.9300) // $llx=4.4350 $lly=0.9300 $urx=4.4350 $ury=0.9300 $lvl=3
*|S (CKbb:23 4.4350 1.0950) // $llx=4.4350 $lly=1.0950 $urx=4.4350 $ury=1.0950 $lvl=3
*|S (CKbb:24 4.8650 3.8950) // $llx=4.8650 $lly=3.8950 $urx=4.8650 $ury=3.8950 $lvl=3
*|S (CKbb:25 4.8650 2.8145) // $llx=4.8650 $lly=2.8145 $urx=4.8650 $ury=2.8145 $lvl=3
*|S (CKbb:26 4.8650 2.6500) // $llx=4.8650 $lly=2.6500 $urx=4.8650 $ury=2.6500 $lvl=3
*|S (CKbb:27 2.8400 3.7450) // $llx=2.8400 $lly=3.7450 $urx=2.8400 $ury=3.7450 $lvl=2
*|S (CKbb:29 2.8400 3.3550) // $llx=2.8400 $lly=3.3550 $urx=2.8400 $ury=3.3550 $lvl=2
*|S (CKbb:30 2.8000 2.6500) // $llx=2.8000 $lly=2.6500 $urx=2.8000 $ury=2.6500 $lvl=2
*|S (CKbb:31 1.4195 2.6500) // $llx=1.4195 $lly=2.6500 $urx=1.4195 $ury=2.6500 $lvl=2
*|S (CKbb:32 1.3350 2.5100) // $llx=1.3350 $lly=2.5100 $urx=1.3350 $ury=2.5100 $lvl=2
*|S (CKbb:33 3.0045 2.6500) // $llx=3.0045 $lly=2.6500 $urx=3.0045 $ury=2.6500 $lvl=2
*|S (CKbb:34 5.2450 2.6500) // $llx=5.2450 $lly=2.6500 $urx=5.2450 $ury=2.6500 $lvl=2
*|S (CKbb:35 5.0800 2.6500) // $llx=5.0800 $lly=2.6500 $urx=5.0800 $ury=2.6500 $lvl=2
*|S (CKbb:36 4.8650 2.6500) // $llx=4.8650 $lly=2.6500 $urx=4.8650 $ury=2.6500 $lvl=2
*|S (CKbb:37 4.7000 2.6500) // $llx=4.7000 $lly=2.6500 $urx=4.7000 $ury=2.6500 $lvl=2
*|S (CKbb:38 5.2450 1.0950) // $llx=5.2450 $lly=1.0950 $urx=5.2450 $ury=1.0950 $lvl=2
*|S (CKbb:39 5.0800 1.0950) // $llx=5.0800 $lly=1.0950 $urx=5.0800 $ury=1.0950 $lvl=2
*|S (CKbb:40 4.4350 1.0950) // $llx=4.4350 $lly=1.0950 $urx=4.4350 $ury=1.0950 $lvl=2
*|S (CKbb:41 2.8000 1.0950) // $llx=2.8000 $lly=1.0950 $urx=2.8000 $ury=1.0950 $lvl=2
*|S (CKbb:43 2.8400 0.6050) // $llx=2.8400 $lly=0.6050 $urx=2.8400 $ury=0.6050 $lvl=2
*|S (CKbb:44 2.8400 0.3950) // $llx=2.8400 $lly=0.3950 $urx=2.8400 $ury=0.3950 $lvl=2
*|S (CKbb:45 1.7550 1.0950) // $llx=1.7550 $lly=1.0950 $urx=1.7550 $ury=1.0950 $lvl=2
*|S (CKbb:46 1.5900 1.0950) // $llx=1.5900 $lly=1.0950 $urx=1.5900 $ury=1.0950 $lvl=2
*|S (CKbb:47 2.8000 2.7950) // $llx=2.8000 $lly=2.7950 $urx=2.8000 $ury=2.7950 $lvl=1
*|S (CKbb:48 2.8000 2.6500) // $llx=2.8000 $lly=2.6500 $urx=2.8000 $ury=2.6500 $lvl=1
*|S (CKbb:49 2.8000 1.0950) // $llx=2.8000 $lly=1.0950 $urx=2.8000 $ury=1.0950 $lvl=1
*|S (CKbb:50 2.8000 0.9500) // $llx=2.8000 $lly=0.9500 $urx=2.8000 $ury=0.9500 $lvl=1
*|S (CKbb:51 5.0800 2.7950) // $llx=5.0800 $lly=2.7950 $urx=5.0800 $ury=2.7950 $lvl=1
*|S (CKbb:52 5.0800 2.6500) // $llx=5.0800 $lly=2.6500 $urx=5.0800 $ury=2.6500 $lvl=1
*|S (CKbb:53 5.0800 1.0950) // $llx=5.0800 $lly=1.0950 $urx=5.0800 $ury=1.0950 $lvl=1
*|S (CKbb:54 5.0800 0.9500) // $llx=5.0800 $lly=0.9500 $urx=5.0800 $ury=0.9500 $lvl=1
CO1 Mmn21:d VSS! 8.72884e-19 $lvl=4
CO2 Mmp21:d VSS! 1.6848e-18 $lvl=4
CO3 Mmp26:g VSS! 3.17956e-18 $lvl=3
CO4 CKbb:51 VSS! 1.14557e-17 $lvl=1
CO5 CKbb:54 VSS! 1.49267e-17 $lvl=1
CO6 CKbb:47 VSS! 1.07269e-17 $lvl=1
CO7 CKbb:50 VSS! 9.27537e-18 $lvl=1
CO8 CKbb:24 VSS! 2.99296e-18 $lvl=3
CO9 CKbb:21 VSS! 2.46507e-18 $lvl=3
CO10 CKbb:18 VSS! 3.542e-18 $lvl=3
CO11 CKbb:43 VSS! 6.02527e-18 $lvl=2
CO12 CKbb:40 VSS! 9.95114e-18 $lvl=2
CO13 CKbb:38 VSS! 9.37651e-18 $lvl=2
CO14 CKbb:46 VSS! 7.18111e-18 $lvl=2
CO15 CKbb:34 VSS! 5.05436e-18 $lvl=2
CO16 CKbb:37 VSS! 3.57448e-18 $lvl=2
CO17 CKbb:32 VSS! 5.75046e-18 $lvl=2
CO18 CKbb:29 VSS! 3.77317e-18 $lvl=2
CO19 CKbb:33 VSS! 3.75949e-18 $lvl=2
CO20 CKbb:41 VSS! 1.61563e-17 $lvl=2
CO21 CKbb:30 VSS! 6.98915e-18 $lvl=2
CO22 CKbb:39 VSS! 3.79642e-18 $lvl=2
CO23 CKbb:35 VSS! 2.27124e-18 $lvl=2
CO24 CKbb:17 VSS! 8.23771e-18 $lvl=3
CO25 CKbb:20 VSS! 1.89287e-17 $lvl=3
CO26 CKbb:23 VSS! 1.8821e-17 $lvl=3
CO27 CKbb:26 VSS! 6.96357e-18 $lvl=3
CO28 CKbb:39 n42 9.44389e-19 $lvl1=2 $lvl2=2
CO29 CKbb:39 n42:3 8.74942e-19 $lvl1=2 $lvl2=2
CO30 CKbb:38 n42:3 2.91375e-18 $lvl1=2 $lvl2=2
CO31 CKbb:54 n42 1.69591e-18 $lvl1=1 $lvl2=2
CO32 CKbb:54 n42:3 1.90041e-18 $lvl1=1 $lvl2=2
CO33 CKbb:38 n42 3.18771e-18 $lvl1=2 $lvl2=2
CO34 CKbb:32 Mmp36:s 3.67132e-19 $lvl1=2 $lvl2=4
CO35 CKbb:29 n31:3 3.2265e-19 $lvl1=2 $lvl2=2
CO36 CKbb:17 n31:3 3.13022e-19 $lvl1=3 $lvl2=2
CO37 CKbb:30 Mmp36:s 2.32316e-19 $lvl1=2 $lvl2=4
CO38 CKbb:47 n31:4 2.31911e-19 $lvl1=1 $lvl2=2
CO39 CKbb:40 n40:3 8.41816e-19 $lvl1=2 $lvl2=2
CO40 CKbb:23 n40:3 6.81712e-19 $lvl1=3 $lvl2=2
CO41 CKbb:40 n40 6.05756e-19 $lvl1=2 $lvl2=2
CO42 CKbb:21 n40:3 3.7662e-19 $lvl1=3 $lvl2=2
CO43 CKbb:23 n40 3.37344e-19 $lvl1=3 $lvl2=2
CO44 CKbb:54 n40:4 3.02046e-19 $lvl1=1 $lvl2=2
CO45 CKbb:23 n25:3 6.7147e-19 $lvl1=3 $lvl2=2
CO46 CKbb:40 Mmn31:s 3.7173e-19 $lvl1=2 $lvl2=4
CO47 CKbb:23 n25 3.01621e-19 $lvl1=3 $lvl2=2
CO48 CKbb:43 n25:3 2.76675e-19 $lvl1=2 $lvl2=2
CO49 CKbb:39 n40:3 1.79728e-18 $lvl1=2 $lvl2=2
CO50 CKbb:32 n31:3 3.20386e-18 $lvl1=2 $lvl2=2
CO51 CKbb:38 n40:3 5.95873e-18 $lvl1=2 $lvl2=2
CO52 CKbb:41 n25:3 2.92629e-18 $lvl1=2 $lvl2=2
CO53 CKbb:54 n40:3 2.31036e-18 $lvl1=1 $lvl2=2
CO54 CKbb:40 n25 1.2851e-17 $lvl1=2 $lvl2=2
CO55 CKbb:30 n31:3 2.19737e-18 $lvl1=2 $lvl2=2
CO56 CKbb:38 n40 1.15182e-17 $lvl1=2 $lvl2=2
CO57 CKbb:30 n31:4 5.72363e-18 $lvl1=2 $lvl2=2
CO58 CKbb:39 n40 2.85803e-18 $lvl1=2 $lvl2=2
CO59 CKbb:54 n40 1.70904e-18 $lvl1=1 $lvl2=2
CO60 CKbb:32 n31:4 1.24604e-17 $lvl1=2 $lvl2=2
CO61 CKbb:41 n25 3.01441e-18 $lvl1=2 $lvl2=2
CO62 CKbb:40 n25:3 6.66507e-18 $lvl1=2 $lvl2=2
CO63 CKbb:17 n22:4 1.49558e-18 $lvl1=3 $lvl2=2
CO64 CKbb:17 n22:3 1.38626e-18 $lvl1=3 $lvl2=2
CO65 Mmp26:g n22 1.33913e-18 $lvl1=3 $lvl2=2
CO66 CKbb:17 Mmp26:s 1.089e-18 $lvl1=3 $lvl2=4
CO67 CKbb:20 Mmn36:d 1.06954e-18 $lvl1=3 $lvl2=4
CO68 CKbb:41 n30:3 1.02401e-18 $lvl1=2 $lvl2=2
CO69 CKbb:41 n30 8.78815e-19 $lvl1=2 $lvl2=2
CO70 CKbb:18 n30 3.57474e-19 $lvl1=3 $lvl2=2
CO71 CKbb:32 n22:3 2.01298e-18 $lvl1=2 $lvl2=2
CO72 CKbb:46 n30:3 6.85782e-18 $lvl1=2 $lvl2=2
CO73 CKbb:32 n22:4 6.60728e-18 $lvl1=2 $lvl2=2
CO74 CKbb:20 n30 2.24617e-18 $lvl1=3 $lvl2=2
CO75 CKbb:18 n30:3 6.47654e-17 $lvl1=3 $lvl2=2
CO76 CKbb:46 n30 1.32426e-17 $lvl1=2 $lvl2=2
CO77 CKbb:20 n30:3 4.93128e-18 $lvl1=3 $lvl2=2
CO78 Mmp26:g n22:3 6.62558e-17 $lvl1=3 $lvl2=2
CO79 CKbb:46 VSS!:28 7.24167e-18 $lvl1=2 $lvl2=2
CO80 CKbb:21 VSS!:12 6.52588e-18 $lvl1=3 $lvl2=2
CO81 CKbb:18 VSS!:13 5.7732e-18 $lvl1=3 $lvl2=2
CO82 CKbb:50 VSS!:34 4.03685e-18 $lvl1=1 $lvl2=1
CO83 CKbb:43 VSS!:34 3.54061e-18 $lvl1=2 $lvl2=1
CO84 CKbb:43 VSS!:10 3.33195e-18 $lvl1=2 $lvl2=2
CO85 Mmn21:d VSS!:25 2.92598e-18 $lvl1=4 $lvl2=2
CO86 CKbb:40 VSS!:25 2.64151e-18 $lvl1=2 $lvl2=2
CO87 CKbb:18 VSS!:14 2.46012e-18 $lvl1=3 $lvl2=2
CO88 CKbb:43 Mmn30:s 2.30928e-18 $lvl1=2 $lvl2=4
CO89 CKbb:43 VSS!:6 2.18532e-18 $lvl1=2 $lvl2=4
CO90 Mmn21:d VSS!:13 1.7415e-18 $lvl1=4 $lvl2=2
CO91 Mmn21:d VSS!:12 1.6993e-18 $lvl1=4 $lvl2=2
CO92 CKbb:54 VSS!:22 1.35564e-18 $lvl1=1 $lvl2=2
CO93 CKbb:51 VSS!:34 1.23195e-18 $lvl1=1 $lvl2=1
CO94 CKbb:41 VSS!:25 2.5599e-17 $lvl1=2 $lvl2=2
CO95 CKbb:54 VSS!:34 1.47586e-17 $lvl1=1 $lvl2=1
CO96 CKbb:43 VSS!:28 2.9426e-17 $lvl1=2 $lvl2=2
CO97 CKbb:43 VSS!:25 2.12167e-17 $lvl1=2 $lvl2=2
CO98 CKbb:41 VSS!:28 2.0463e-17 $lvl1=2 $lvl2=2
CO99 CKbb:43 VSS!:13 1.44139e-17 $lvl1=2 $lvl2=2
CO100 CKbb:43 VSS!:12 1.17092e-17 $lvl1=2 $lvl2=2
ReO402 CKbb:47 CKbb:48 0.078804 $metal1  $L=0.145 $W=0.230000 $SI_W=0.23 $TYPE=10 $DIR=1 $LLX=2.685000 $LLY=2.650000 $URX=2.915000 $URY=2.795000 $lvl=1
ReO403 CKbb:48 CKbb:49 0.845109 $metal1  $L=1.555 $W=0.230000 $SI_W=0.23 $TYPE=10 $DIR=1 $LLX=2.685000 $LLY=1.095000 $URX=2.915000 $URY=2.650000 $lvl=1
ReO404 CKbb:49 CKbb:50 0.078804 $metal1  $L=0.145 $W=0.230000 $SI_W=0.23 $TYPE=10 $DIR=1 $LLX=2.685000 $LLY=0.950000 $URX=2.915000 $URY=1.095000 $lvl=1
ReO405 CKbb:51 CKbb:52 0.078804 $metal1  $L=0.145 $W=0.230000 $SI_W=0.23 $TYPE=10 $DIR=1 $LLX=4.965000 $LLY=2.650000 $URX=5.195000 $URY=2.795000 $lvl=1
ReO406 CKbb:52 CKbb:53 0.845109 $metal1  $L=1.555 $W=0.230000 $SI_W=0.23 $TYPE=10 $DIR=1 $LLX=4.965000 $LLY=1.095000 $URX=5.195000 $URY=2.650000 $lvl=1
ReO407 CKbb:53 CKbb:54 0.078804 $metal1  $L=0.145 $W=0.230000 $SI_W=0.23 $TYPE=10 $DIR=1 $LLX=4.965000 $LLY=0.950000 $URX=5.195000 $URY=1.095000 $lvl=1
RfO408 CKbb:27 CKbb:29 29.364706 $li  $L=0.39 $W=0.170000 $SI_W=0.17 $TYPE=10 $DIR=1 $LLX=2.755000 $LLY=3.355000 $URX=2.925000 $URY=3.745000 $lvl=2
RfO409 CKbb:29 CKbb:30 53.082352 $li  $L=0.705 $W=0.170000 $SI_W=0.17 $TYPE=10 $DIR=1 $LLX=2.755000 $LLY=2.650000 $URX=2.925000 $URY=3.355000 $lvl=2
RfO410 CKbb:30 CKbb:31 103.914085 $li  $L=1.38 $W=0.170000 $SI_W=0.17 $TYPE=10 $DIR=0 $LLX=1.419500 $LLY=2.565000 $URX=2.799500 $URY=2.735000 $lvl=2
RfO411 CKbb:31 CKbb:32 4.588319 $li  $L=0.0845 $W=0.390000 $SI_W=0.39 $TYPE=10 $DIR=0 $LLX=1.335000 $LLY=2.455000 $URX=1.419500 $URY=2.845000 $lvl=2
RfO412 CKbb:30 CKbb:33 15.397647 $li  $L=0.2045 $W=0.170000 $SI_W=0.17 $TYPE=10 $DIR=0 $LLX=2.800000 $LLY=2.565000 $URX=3.004500 $URY=2.735000 $lvl=2
RfO413 CKbb:34 CKbb:35 12.423529 $li  $L=0.165 $W=0.170000 $SI_W=0.17 $TYPE=10 $DIR=0 $LLX=5.080000 $LLY=2.565000 $URX=5.245000 $URY=2.735000 $lvl=2
RfO414 CKbb:35 CKbb:36 16.188236 $li  $L=0.215 $W=0.170000 $SI_W=0.17 $TYPE=10 $DIR=0 $LLX=4.865000 $LLY=2.565000 $URX=5.080000 $URY=2.735000 $lvl=2
RfO415 CKbb:36 CKbb:37 12.423529 $li  $L=0.165 $W=0.170000 $SI_W=0.17 $TYPE=10 $DIR=0 $LLX=4.700000 $LLY=2.565000 $URX=4.865000 $URY=2.735000 $lvl=2
RfO416 CKbb:38 CKbb:39 12.423529 $li  $L=0.165 $W=0.170000 $SI_W=0.17 $TYPE=10 $DIR=0 $LLX=5.080000 $LLY=1.010000 $URX=5.245000 $URY=1.180000 $lvl=2
RfO417 CKbb:39 CKbb:40 48.564705 $li  $L=0.645 $W=0.170000 $SI_W=0.17 $TYPE=10 $DIR=0 $LLX=4.435000 $LLY=1.010000 $URX=5.080000 $URY=1.180000 $lvl=2
RfO418 CKbb:40 CKbb:41 123.105881 $li  $L=1.635 $W=0.170000 $SI_W=0.17 $TYPE=10 $DIR=0 $LLX=2.800000 $LLY=1.010000 $URX=4.435000 $URY=1.180000 $lvl=2
RfO419 CKbb:41 CKbb:43 36.894119 $li  $L=0.49 $W=0.170000 $SI_W=0.17 $TYPE=10 $DIR=1 $LLX=2.755000 $LLY=0.605000 $URX=2.925000 $URY=1.095000 $lvl=2
RfO420 CKbb:43 CKbb:44 15.811765 $li  $L=0.21 $W=0.170000 $SI_W=0.17 $TYPE=10 $DIR=1 $LLX=2.755000 $LLY=0.395000 $URX=2.925000 $URY=0.605000 $lvl=2
RfO421 CKbb:41 CKbb:45 78.682358 $li  $L=1.045 $W=0.170000 $SI_W=0.17 $TYPE=10 $DIR=0 $LLX=1.755000 $LLY=1.010000 $URX=2.800000 $URY=1.180000 $lvl=2
RfO422 CKbb:45 CKbb:46 12.423529 $li  $L=0.165 $W=0.170000 $SI_W=0.17 $TYPE=10 $DIR=0 $LLX=1.590000 $LLY=1.010000 $URX=1.755000 $URY=1.180000 $lvl=2
RgO423 CKbb:15 Mmp26:g 173.519989 $poly  $L=0.54 $W=0.150000 $SI_W=0.15 $TYPE=10 $DIR=1 $LLX=1.260000 $LLY=3.355000 $URX=1.410000 $URY=3.895000 $lvl=3
RgO424 Mmp26:g CKbb:16 218.551285 $poly  $L=0.68 $W=0.150000 $SI_W=0.15 $TYPE=10 $DIR=1 $LLX=1.260000 $LLY=2.674500 $URX=1.410000 $URY=3.354500 $lvl=3
RgO425 CKbb:16 CKbb:17 34.134449 $poly  $L=0.1645 $W=0.270000 $SI_W=0.27 $TYPE=10 $DIR=1 $LLX=1.200000 $LLY=2.509500 $URX=1.470000 $URY=2.674500 $lvl=3
RgO426 CKbb:18 CKbb 116.483322 $poly  $L=0.3625 $W=0.150000 $SI_W=0.15 $TYPE=10 $DIR=1 $LLX=1.690000 $LLY=0.245000 $URX=1.840000 $URY=0.607500 $lvl=3
RgO427 CKbb CKbb:19 103.674629 $poly  $L=0.3225 $W=0.150000 $SI_W=0.15 $TYPE=10 $DIR=1 $LLX=1.690000 $LLY=0.607500 $URX=1.840000 $URY=0.930000 $lvl=3
RgO428 CKbb:19 CKbb:20 34.134449 $poly  $L=0.1645 $W=0.270000 $SI_W=0.27 $TYPE=10 $DIR=1 $LLX=1.620000 $LLY=0.930500 $URX=1.890000 $URY=1.095000 $lvl=3
RgO429 CKbb:21 Mmn40:g 116.483322 $poly  $L=0.3625 $W=0.150000 $SI_W=0.15 $TYPE=10 $DIR=1 $LLX=4.360000 $LLY=0.245000 $URX=4.510000 $URY=0.607500 $lvl=3
RgO430 Mmn40:g CKbb:22 103.674629 $poly  $L=0.3225 $W=0.150000 $SI_W=0.15 $TYPE=10 $DIR=1 $LLX=4.360000 $LLY=0.607500 $URX=4.510000 $URY=0.930000 $lvl=3
RgO431 CKbb:22 CKbb:23 34.134449 $poly  $L=0.1645 $W=0.270000 $SI_W=0.27 $TYPE=10 $DIR=1 $LLX=4.300000 $LLY=0.930500 $URX=4.570000 $URY=1.095000 $lvl=3
RgO432 CKbb:24 Mmp52:g 173.519989 $poly  $L=0.54 $W=0.150000 $SI_W=0.15 $TYPE=10 $DIR=1 $LLX=4.790000 $LLY=3.355000 $URX=4.940000 $URY=3.895000 $lvl=3
RgO433 Mmp52:g CKbb:25 173.564621 $poly  $L=0.54 $W=0.150000 $SI_W=0.15 $TYPE=10 $DIR=1 $LLX=4.790000 $LLY=2.814500 $URX=4.940000 $URY=3.354500 $lvl=3
RgO434 CKbb:25 CKbb:26 34.134449 $poly  $L=0.1645 $W=0.270000 $SI_W=0.27 $TYPE=10 $DIR=1 $LLX=4.730000 $LLY=2.650000 $URX=5.000000 $URY=2.814000 $lvl=3
RhO435 Mmn21:d CKbb:43 15.000000 $licon_diff  $L=0.17 $W=0.17 $A=0.0289 $VC=0 $SAVL=0 $SAVC=0 $SI_A=0.0289 $COVER_DIR=0 $LLX=0.000000 $LLY=0.000000 $URX=0.170000 $URY=0.170000 $lvl=5
Rh_2_O436 Mmp21:d CKbb:29 7.500000 $licon_diff  $A=0.0578 $VC=0 $SAVL=0 $SAVC=0 $SI_A=0.0578 $COVER_DIR=0 $LLX=0.000000 $LLY=0.000000 $URX=-0.057800 $URY=-2.000000 $lvl=5
RjO437 CKbb:30 CKbb:48 152.000000 $mcon  $L=0.17 $W=0.17 $A=0.0289 $VC=0 $SAVL=0 $SAVC=0 $SI_A=0.0289 $COVER_DIR=0 $LLX=0.000000 $LLY=0.000000 $URX=0.170000 $URY=0.170000 $lvl=6
RjO438 CKbb:41 CKbb:49 152.000000 $mcon  $L=0.17 $W=0.17 $A=0.0289 $VC=0 $SAVL=0 $SAVC=0 $SI_A=0.0289 $COVER_DIR=0 $LLX=0.000000 $LLY=0.000000 $URX=0.170000 $URY=0.170000 $lvl=6
RjO439 CKbb:35 CKbb:52 152.000000 $mcon  $L=0.17 $W=0.17 $A=0.0289 $VC=0 $SAVL=0 $SAVC=0 $SI_A=0.0289 $COVER_DIR=0 $LLX=0.000000 $LLY=0.000000 $URX=0.170000 $URY=0.170000 $lvl=6
RjO440 CKbb:39 CKbb:53 152.000000 $mcon  $L=0.17 $W=0.17 $A=0.0289 $VC=0 $SAVL=0 $SAVC=0 $SI_A=0.0289 $COVER_DIR=0 $LLX=0.000000 $LLY=0.000000 $URX=0.170000 $URY=0.170000 $lvl=6
RiO441 CKbb:17 CKbb:32 15.000000 $licon  $L=0.17 $W=0.17 $A=0.0289 $VC=0 $SAVL=0 $SAVC=0 $SI_A=0.0289 $COVER_DIR=0 $LLX=0.000000 $LLY=0.000000 $URX=0.170000 $URY=0.170000 $lvl=7
RiO442 CKbb:26 CKbb:36 15.000000 $licon  $L=0.17 $W=0.17 $A=0.0289 $VC=0 $SAVL=0 $SAVC=0 $SI_A=0.0289 $COVER_DIR=0 $LLX=0.000000 $LLY=0.000000 $URX=0.170000 $URY=0.170000 $lvl=7
RiO443 CKbb:23 CKbb:40 15.000000 $licon  $L=0.17 $W=0.17 $A=0.0289 $VC=0 $SAVL=0 $SAVC=0 $SI_A=0.0289 $COVER_DIR=0 $LLX=0.000000 $LLY=0.000000 $URX=0.170000 $URY=0.170000 $lvl=7
RiO444 CKbb:20 CKbb:45 15.000000 $licon  $L=0.17 $W=0.17 $A=0.0289 $VC=0 $SAVL=0 $SAVC=0 $SI_A=0.0289 $COVER_DIR=0 $LLX=0.000000 $LLY=0.000000 $URX=0.170000 $URY=0.170000 $lvl=7
RmwO445 Mmn35:g CKbb 0.001000 $poly $W=1000000 $SI_W=1000000 $TYPE=1 $DIR=0
*
*|NET n21 2.69615e-16
*|I (Mmn26:s Mmn26 s X 0 1.2595 0.6075) // $llx=1.2595 $lly=0.6075 $urx=1.2595 $ury=0.6075 $lvl=4
*|I (Mmn25:d Mmn25 d X 0 0.9805 0.6075) // $llx=0.9805 $lly=0.6075 $urx=0.9805 $ury=0.6075 $lvl=4
*|S (n21 1.1200 0.8195) // $llx=1.1200 $lly=0.8195 $urx=1.1200 $ury=0.8195 $lvl=2
*|S (n21:3 1.1200 0.6050) // $llx=1.1200 $lly=0.6050 $urx=1.1200 $ury=0.6050 $lvl=2
*|S (n21:4 1.1200 0.3950) // $llx=1.1200 $lly=0.3950 $urx=1.1200 $ury=0.3950 $lvl=2
CP1 Mmn26:s VSS! 1.22915e-18 $lvl=4
CP2 n21:3 VSS! 4.43252e-18 $lvl=2
CP3 n21:4 VSS! 1.08218e-18 $lvl=2
CP4 n21 VSS! 3.05599e-18 $lvl=2
CP5 n21:3 VSS!:6 6.40384e-19 $lvl1=2 $lvl2=4
CP6 n21:3 VSS!:13 3.90391e-19 $lvl1=2 $lvl2=2
CP7 Mmn26:s VSS!:31 3.29682e-19 $lvl1=4 $lvl2=2
CP8 n21:3 VSS!:10 1.34912e-18 $lvl1=2 $lvl2=2
CP9 n21:3 VSS!:14 9.92122e-18 $lvl1=2 $lvl2=2
CP10 n21:3 VSS!:34 2.2924e-18 $lvl1=2 $lvl2=1
CP11 n21:3 VSS!:31 2.01453e-17 $lvl1=2 $lvl2=2
CP12 n21 VSS!:31 3.01555e-18 $lvl1=2 $lvl2=2
CP13 n21:4 VSS!:14 1.10359e-17 $lvl1=2 $lvl2=2
CP14 n21:4 VSS!:10 1.80945e-18 $lvl1=2 $lvl2=2
CP15 n21:4 VSS!:34 2.45497e-18 $lvl1=2 $lvl2=1
CP16 Mmn26:s VSS!:14 1.55695e-18 $lvl1=4 $lvl2=2
CP17 n21:4 VSS!:31 3.60421e-18 $lvl1=2 $lvl2=2
RfP446 n21 n21:3 16.150589 $li  $L=0.2145 $W=0.170000 $SI_W=0.17 $TYPE=10 $DIR=1 $LLX=1.035000 $LLY=0.605000 $URX=1.205000 $URY=0.819500 $lvl=2
RfP447 n21:3 n21:4 15.811765 $li  $L=0.21 $W=0.170000 $SI_W=0.17 $TYPE=10 $DIR=1 $LLX=1.035000 $LLY=0.395000 $URX=1.205000 $URY=0.605000 $lvl=2
RhP448 Mmn26:s n21:3 15.000000 $licon_diff  $L=0.17 $W=0.17 $A=0.0289 $VC=0 $SAVL=0 $SAVC=0 $SI_A=0.0289 $COVER_DIR=0 $LLX=0.000000 $LLY=0.000000 $URX=0.170000 $URY=0.170000 $lvl=5
RmwP449 Mmn25:d Mmn26:s 0.001000 $diff $W=1000000 $SI_W=1000000 $TYPE=1 $DIR=0
*
*|NET n22 3.01538e-16
*|I (Mmp26:s Mmp26 s X 0 1.2595 3.3550) // $llx=1.2595 $lly=3.3550 $urx=1.2595 $ury=3.3550 $lvl=4
*|I (Mmp25:d Mmp25 d X 0 0.9805 3.3550) // $llx=0.9805 $lly=3.3550 $urx=0.9805 $ury=3.3550 $lvl=4
*|S (n22 1.1200 3.5495) // $llx=1.1200 $lly=3.5495 $urx=1.1200 $ury=3.5495 $lvl=2
*|S (n22:3 1.1200 3.2350) // $llx=1.1200 $lly=3.2350 $urx=1.1200 $ury=3.2350 $lvl=2
*|S (n22:4 1.1200 2.9250) // $llx=1.1200 $lly=2.9250 $urx=1.1200 $ury=2.9250 $lvl=2
CP18 Mmp26:s VSS! 1.46885e-18 $lvl=4
CP19 n22:3 VSS! 2.0729e-18 $lvl=2
CP20 n22:4 VSS! 3.0143e-18 $lvl=2
CP21 n22 VSS! 1.56016e-18 $lvl=2
RfP450 n22 n22:3 23.680000 $li  $L=0.3145 $W=0.170000 $SI_W=0.17 $TYPE=10 $DIR=1 $LLX=1.035000 $LLY=3.235000 $URX=1.205000 $URY=3.549500 $lvl=2
RfP451 n22:3 n22:4 23.341177 $li  $L=0.31 $W=0.170000 $SI_W=0.17 $TYPE=10 $DIR=1 $LLX=1.035000 $LLY=2.925000 $URX=1.205000 $URY=3.235000 $lvl=2
Rh_2_P452 Mmp26:s n22:3 15.000000 $licon_diff  $L=0.17 $W=0.17 $A=0.0289 $VC=0 $SAVL=0 $SAVC=0 $SI_A=0.0289 $COVER_DIR=0 $LLX=0.000000 $LLY=0.000000 $URX=0.170000 $URY=0.170000 $lvl=5
RmwP453 Mmp25:d Mmp26:s 0.001000 $diff $W=1000000 $SI_W=1000000 $TYPE=1 $DIR=0
*
*|NET n30 2.77163e-16
*|I (Mmn36:d Mmn36 d X 0 2.1195 0.6075) // $llx=2.1195 $lly=0.6075 $urx=2.1195 $ury=0.6075 $lvl=4
*|I (Mmn35:s Mmn35 s X 0 1.8405 0.6075) // $llx=1.8405 $lly=0.6075 $urx=1.8405 $ury=0.6075 $lvl=4
*|S (n30 1.9800 0.8195) // $llx=1.9800 $lly=0.8195 $urx=1.9800 $ury=0.8195 $lvl=2
*|S (n30:3 1.9800 0.6050) // $llx=1.9800 $lly=0.6050 $urx=1.9800 $ury=0.6050 $lvl=2
*|S (n30:4 1.9800 0.3950) // $llx=1.9800 $lly=0.3950 $urx=1.9800 $ury=0.3950 $lvl=2
CP22 Mmn36:d VSS! 1.14289e-18 $lvl=4
CP23 n30:3 VSS! 6.82238e-18 $lvl=2
CP24 n30:4 VSS! 1.51902e-18 $lvl=2
CP25 n30 VSS! 1.29027e-18 $lvl=2
CP26 n30:3 VSS!:6 8.75362e-19 $lvl1=2 $lvl2=4
CP27 n30:3 VSS!:14 6.53825e-19 $lvl1=2 $lvl2=2
CP28 n30 VSS!:34 4.65397e-19 $lvl1=2 $lvl2=1
CP29 Mmn36:d VSS!:28 3.3381e-19 $lvl1=4 $lvl2=2
CP30 n30:4 VSS!:28 4.07549e-18 $lvl1=2 $lvl2=2
CP31 n30 VSS!:28 3.41202e-18 $lvl1=2 $lvl2=2
CP32 n30:3 VSS!:34 2.81942e-18 $lvl1=2 $lvl2=1
CP33 n30:3 VSS!:13 9.98612e-18 $lvl1=2 $lvl2=2
CP34 Mmn36:d VSS!:13 1.41527e-18 $lvl1=4 $lvl2=2
CP35 n30:3 VSS!:28 2.08286e-17 $lvl1=2 $lvl2=2
CP36 n30:4 VSS!:10 2.04851e-18 $lvl1=2 $lvl2=2
CP37 n30:4 VSS!:34 2.70243e-18 $lvl1=2 $lvl2=1
CP38 n30:3 VSS!:10 1.40892e-18 $lvl1=2 $lvl2=2
CP39 n30:4 VSS!:13 1.11775e-17 $lvl1=2 $lvl2=2
RfP454 n30 n30:3 16.150589 $li  $L=0.2145 $W=0.170000 $SI_W=0.17 $TYPE=10 $DIR=1 $LLX=1.895000 $LLY=0.605000 $URX=2.065000 $URY=0.819500 $lvl=2
RfP455 n30:3 n30:4 15.811765 $li  $L=0.21 $W=0.170000 $SI_W=0.17 $TYPE=10 $DIR=1 $LLX=1.895000 $LLY=0.395000 $URX=2.065000 $URY=0.605000 $lvl=2
RhP456 Mmn36:d n30:3 15.000000 $licon_diff  $L=0.17 $W=0.17 $A=0.0289 $VC=0 $SAVL=0 $SAVC=0 $SI_A=0.0289 $COVER_DIR=0 $LLX=0.000000 $LLY=0.000000 $URX=0.170000 $URY=0.170000 $lvl=5
RmwP457 Mmn35:s Mmn36:d 0.001000 $diff $W=1000000 $SI_W=1000000 $TYPE=1 $DIR=0
*
*|NET mout 2.97561e-15
*|I (Mmp31:d Mmp31 d X 0 4.0805 3.3550) // $llx=4.0805 $lly=3.3550 $urx=4.0805 $ury=3.3550 $lvl=4
*|I (Mmp40:s Mmp40 s X 0 4.3595 3.3550) // $llx=4.3595 $lly=3.3550 $urx=4.3595 $ury=3.3550 $lvl=4
*|I (Mmp35:g Mmp35 g X 0 2.1950 3.3550) // $llx=2.1950 $lly=3.3550 $urx=2.1950 $ury=3.3550 $lvl=3
*|I (Mmp30:d Mmp30 d X 0 3.4995 3.3550) // $llx=3.4995 $lly=3.3550 $urx=3.4995 $ury=3.3550 $lvl=4
*|I (Mmn31:d Mmn31 d X 0 4.0805 0.6075) // $llx=4.0805 $lly=0.6075 $urx=4.0805 $ury=0.6075 $lvl=4
*|I (Mmn36:g Mmn36 g X 0 2.1950 0.6075) // $llx=2.1950 $lly=0.6075 $urx=2.1950 $ury=0.6075 $lvl=3
*|I (Mmn40:s Mmn40 s X 0 4.3595 0.6075) // $llx=4.3595 $lly=0.6075 $urx=4.3595 $ury=0.6075 $lvl=4
*|S (mout 2.1950 0.6075) // $llx=2.1950 $lly=0.6075 $urx=2.1950 $ury=0.6075 $lvl=3
*|S (mout:8 2.1950 3.8950) // $llx=2.1950 $lly=3.8950 $urx=2.1950 $ury=3.8950 $lvl=3
*|S (mout:9 2.2350 1.4350) // $llx=2.2350 $lly=1.4350 $urx=2.2350 $ury=1.4350 $lvl=3
*|S (mout:10 2.2350 1.2700) // $llx=2.2350 $lly=1.2700 $urx=2.2350 $ury=1.2700 $lvl=3
*|S (mout:11 2.1950 0.2450) // $llx=2.1950 $lly=0.2450 $urx=2.1950 $ury=0.2450 $lvl=3
*|S (mout:12 2.5750 1.4350) // $llx=2.5750 $lly=1.4350 $urx=2.5750 $ury=1.4350 $lvl=2
*|S (mout:13 2.4100 1.4350) // $llx=2.4100 $lly=1.4350 $urx=2.4100 $ury=1.4350 $lvl=2
*|S (mout:14 2.2350 1.4350) // $llx=2.2350 $lly=1.4350 $urx=2.2350 $ury=1.4350 $lvl=2
*|S (mout:15 2.0500 1.4350) // $llx=2.0500 $lly=1.4350 $urx=2.0500 $ury=1.4350 $lvl=2
*|S (mout:16 3.3600 3.7450) // $llx=3.3600 $lly=3.7450 $urx=3.3600 $ury=3.7450 $lvl=2
*|S (mout:17 3.3600 3.4700) // $llx=3.3600 $lly=3.4700 $urx=3.3600 $ury=3.4700 $lvl=2
*|S (mout:19 3.3600 3.3550) // $llx=3.3600 $lly=3.3550 $urx=3.3600 $ury=3.3550 $lvl=2
*|S (mout:20 3.3600 2.9650) // $llx=3.3600 $lly=2.9650 $urx=3.3600 $ury=2.9650 $lvl=2
*|S (mout:21 4.2200 3.7450) // $llx=4.2200 $lly=3.7450 $urx=4.2200 $ury=3.7450 $lvl=2
*|S (mout:23 4.2200 3.3550) // $llx=4.2200 $lly=3.3550 $urx=4.2200 $ury=3.3550 $lvl=2
*|S (mout:24 4.2200 3.0900) // $llx=4.2200 $lly=3.0900 $urx=4.2200 $ury=3.0900 $lvl=2
*|S (mout:25 4.2200 0.8200) // $llx=4.2200 $lly=0.8200 $urx=4.2200 $ury=0.8200 $lvl=2
*|S (mout:26 4.2200 0.6550) // $llx=4.2200 $lly=0.6550 $urx=4.2200 $ury=0.6550 $lvl=2
*|S (mout:28 4.2200 0.6050) // $llx=4.2200 $lly=0.6050 $urx=4.2200 $ury=0.6050 $lvl=2
*|S (mout:29 4.2200 0.3950) // $llx=4.2200 $lly=0.3950 $urx=4.2200 $ury=0.3950 $lvl=2
*|S (mout:30 2.4100 1.6000) // $llx=2.4100 $lly=1.6000 $urx=2.4100 $ury=1.6000 $lvl=1
*|S (mout:31 2.4100 1.4350) // $llx=2.4100 $lly=1.4350 $urx=2.4100 $ury=1.4350 $lvl=1
*|S (mout:32 2.4100 0.6250) // $llx=2.4100 $lly=0.6250 $urx=2.4100 $ury=0.6250 $lvl=1
*|S (mout:33 4.2200 0.6550) // $llx=4.2200 $lly=0.6550 $urx=4.2200 $ury=0.6550 $lvl=1
*|S (mout:34 4.2200 3.0900) // $llx=4.2200 $lly=3.0900 $urx=4.2200 $ury=3.0900 $lvl=1
*|S (mout:35 4.2200 3.5250) // $llx=4.2200 $lly=3.5250 $urx=4.2200 $ury=3.5250 $lvl=1
*|S (mout:36 3.3600 3.4700) // $llx=3.3600 $lly=3.4700 $urx=3.3600 $ury=3.4700 $lvl=1
*|S (mout:37 3.2450 3.4975) // $llx=3.2450 $lly=3.4975 $urx=3.2450 $ury=3.4975 $lvl=1
*|S (mout:38 3.2150 3.4700) // $llx=3.2150 $lly=3.4700 $urx=3.2150 $ury=3.4700 $lvl=1
CJ1 Mmn31:d VSS! 2.80884e-18 $lvl=4
CJ2 Mmp30:d VSS! 1.85338e-18 $lvl=4
CJ3 Mmp31:d VSS! 2.45301e-18 $lvl=4
CJ4 mout:37 VSS! 5.44123e-18 $lvl=1
CJ5 mout:34 VSS! 1.09933e-17 $lvl=1
CJ6 mout:33 VSS! 1.27616e-17 $lvl=1
CJ7 mout:30 VSS! 9.04947e-18 $lvl=1
CJ8 mout:38 VSS! 3.60585e-18 $lvl=1
CJ9 mout:35 VSS! 8.34611e-18 $lvl=1
CJ10 mout:32 VSS! 9.81758e-18 $lvl=1
CJ11 mout:8 VSS! 2.96848e-18 $lvl=3
CJ12 mout:25 VSS! 6.33467e-18 $lvl=2
CJ13 mout:29 VSS! 1.43589e-18 $lvl=2
CJ14 mout:21 VSS! 5.8555e-18 $lvl=2
CJ15 mout:16 VSS! 4.77761e-18 $lvl=2
CJ16 mout:20 VSS! 3.28728e-18 $lvl=2
CJ17 mout:14 VSS! 1.57606e-18 $lvl=2
CJ18 mout:12 VSS! 4.32374e-18 $lvl=2
CJ19 mout:15 VSS! 3.31873e-18 $lvl=2
CJ20 mout:13 VSS! 2.02843e-18 $lvl=2
CJ21 mout:17 VSS! 2.69921e-18 $lvl=2
CJ22 mout:26 VSS! 3.50585e-18 $lvl=2
CJ23 mout:24 VSS! 2.16924e-18 $lvl=2
CJ24 mout:9 VSS! 2.20912e-17 $lvl=3
CJ25 mout VSS! 1.30811e-18 $lvl=3
CJ26 mout:26 n25 1.14042e-18 $lvl1=2 $lvl2=2
CJ27 mout:25 n25:4 1.11809e-18 $lvl1=2 $lvl2=2
CJ28 mout:26 n25:4 6.13492e-19 $lvl1=2 $lvl2=2
CJ29 mout:32 n25:3 3.81413e-19 $lvl1=1 $lvl2=2
CJ30 mout:8 n31 1.28605e-18 $lvl1=3 $lvl2=2
CJ31 mout:33 n25:4 2.9769e-18 $lvl1=1 $lvl2=2
CJ32 mout:33 n25:3 9.85042e-18 $lvl1=1 $lvl2=2
CJ33 mout:25 n25 2.7569e-18 $lvl1=2 $lvl2=2
CJ34 mout:26 n25:3 4.23118e-18 $lvl1=2 $lvl2=2
CJ35 mout:25 n25:3 1.43103e-17 $lvl1=2 $lvl2=2
CJ36 mout:29 n25:4 2.09079e-18 $lvl1=2 $lvl2=2
CJ37 mout:8 n31:3 6.7125e-17 $lvl1=3 $lvl2=2
CJ38 mout:29 n25:3 3.2192e-18 $lvl1=2 $lvl2=2
CJ39 mout:33 n25 3.80357e-18 $lvl1=1 $lvl2=2
CJ40 mout:32 n30 1.29458e-18 $lvl1=1 $lvl2=2
CJ41 mout:32 n30:4 9.40232e-19 $lvl1=1 $lvl2=2
CJ42 mout:9 n30:3 6.69411e-19 $lvl1=3 $lvl2=2
CJ43 mout n30:4 4.74656e-19 $lvl1=3 $lvl2=2
CJ44 mout n30 4.28615e-19 $lvl1=3 $lvl2=2
CJ45 mout:30 n30:3 3.22968e-19 $lvl1=1 $lvl2=2
CJ46 mout:30 n30 2.77441e-19 $lvl1=1 $lvl2=2
CJ47 mout n30:3 6.50057e-17 $lvl1=3 $lvl2=2
CJ48 mout:32 n30:3 3.52692e-18 $lvl1=1 $lvl2=2
CJ49 mout:33 CKbb:41 7.77591e-18 $lvl1=1 $lvl2=2
CJ50 mout:9 CKbb:46 7.71918e-18 $lvl1=3 $lvl2=2
CJ51 mout:13 CKbb:41 7.63615e-18 $lvl1=2 $lvl2=2
CJ52 mout:33 CKbb:50 7.46837e-18 $lvl1=1 $lvl2=1
CJ53 mout:25 CKbb:23 7.23682e-18 $lvl1=2 $lvl2=3
CJ54 mout:30 CKbb:47 6.61428e-18 $lvl1=1 $lvl2=1
CJ55 mout:9 CKbb:41 6.59086e-18 $lvl1=3 $lvl2=2
CJ56 mout:30 CKbb:41 5.80678e-18 $lvl1=1 $lvl2=2
CJ57 mout:9 CKbb:20 5.42587e-18 $lvl1=3 $lvl2=3
CJ58 mout:14 CKbb:46 5.38335e-18 $lvl1=2 $lvl2=2
CJ59 mout:30 CKbb:46 5.14225e-18 $lvl1=1 $lvl2=2
CJ60 mout:13 CKbb:50 4.64169e-18 $lvl1=2 $lvl2=1
CJ61 mout:20 CKbb:29 4.52388e-18 $lvl1=2 $lvl2=2
CJ62 mout:16 Mmp21:d 4.43485e-18 $lvl1=2 $lvl2=4
CJ63 mout:33 CKbb:54 4.12198e-18 $lvl1=1 $lvl2=1
CJ64 mout:32 CKbb:46 4.08242e-18 $lvl1=1 $lvl2=2
CJ65 mout:26 CKbb:40 3.9832e-18 $lvl1=2 $lvl2=2
CJ66 Mmp30:d CKbb:29 3.71067e-18 $lvl1=4 $lvl2=2
CJ67 mout:13 CKbb:46 3.0541e-18 $lvl1=2 $lvl2=2
CJ68 mout:34 CKbb:51 3.02509e-18 $lvl1=1 $lvl2=1
CJ69 mout:38 CKbb:29 2.69756e-18 $lvl1=1 $lvl2=2
CJ70 mout:17 CKbb:29 2.54502e-18 $lvl1=2 $lvl2=2
CJ71 mout CKbb:20 2.52227e-18 $lvl1=3 $lvl2=3
CJ72 mout:20 CKbb:30 2.36285e-18 $lvl1=2 $lvl2=2
CJ73 mout:14 CKbb:41 2.32268e-18 $lvl1=2 $lvl2=2
CJ74 mout:8 CKbb:30 2.22233e-18 $lvl1=3 $lvl2=2
CJ75 mout:12 CKbb:50 2.04204e-18 $lvl1=2 $lvl2=1
CJ76 mout:16 CKbb:30 2.00348e-18 $lvl1=2 $lvl2=2
CJ77 mout:15 CKbb:20 1.79029e-18 $lvl1=2 $lvl2=3
CJ78 Mmn31:d CKbb:23 1.53029e-18 $lvl1=4 $lvl2=3
CJ79 mout CKbb:46 1.49764e-18 $lvl1=3 $lvl2=2
CJ80 mout:8 CKbb:32 1.4681e-18 $lvl1=3 $lvl2=2
CJ81 mout:34 CKbb:37 1.34525e-18 $lvl1=1 $lvl2=2
CJ82 mout:34 CKbb:54 1.28394e-18 $lvl1=1 $lvl2=1
CJ83 mout:33 CKbb:47 1.2316e-18 $lvl1=1 $lvl2=1
CJ84 mout:21 CKbb:37 1.21698e-18 $lvl1=2 $lvl2=2
CJ85 mout:20 CKbb:33 1.10763e-18 $lvl1=2 $lvl2=2
CJ86 mout:33 CKbb:51 1.06896e-18 $lvl1=1 $lvl2=1
CJ87 mout CKbb:41 1.05552e-18 $lvl1=3 $lvl2=2
CJ88 mout:12 CKbb:46 9.76767e-19 $lvl1=2 $lvl2=2
CJ89 mout:29 CKbb:21 9.45412e-19 $lvl1=2 $lvl2=3
CJ90 mout:37 CKbb:29 9.42388e-19 $lvl1=1 $lvl2=2
CJ91 mout:21 CKbb:26 9.2182e-19 $lvl1=2 $lvl2=3
CJ92 mout:32 CKbb:47 8.11984e-19 $lvl1=1 $lvl2=1
CJ93 mout:34 CKbb:47 8.05977e-19 $lvl1=1 $lvl2=1
CJ94 mout:16 CKbb:33 7.70703e-19 $lvl1=2 $lvl2=2
CJ95 mout:33 CKbb:23 7.22677e-19 $lvl1=1 $lvl2=3
CJ96 mout CKbb:43 6.88047e-19 $lvl1=3 $lvl2=2
CJ97 mout:33 CKbb:43 6.69595e-19 $lvl1=1 $lvl2=2
CJ98 mout:34 CKbb:50 6.53572e-19 $lvl1=1 $lvl2=1
CJ99 mout:13 CKbb:47 6.11606e-19 $lvl1=2 $lvl2=1
CJ100 mout:9 CKbb:30 6.0103e-19 $lvl1=3 $lvl2=2
CJ101 mout:32 CKbb:40 5.94338e-19 $lvl1=1 $lvl2=2
CJ102 mout:8 CKbb:29 5.87005e-19 $lvl1=3 $lvl2=2
CJ103 mout:15 CKbb:41 5.84401e-19 $lvl1=2 $lvl2=2
CJ104 mout:8 CKbb:17 5.39275e-19 $lvl1=3 $lvl2=3
CJ105 mout:30 CKbb:30 5.356e-19 $lvl1=1 $lvl2=2
CJ106 mout:32 CKbb:41 1.65376e-17 $lvl1=1 $lvl2=2
CJ107 mout:33 CKbb:40 2.86738e-17 $lvl1=1 $lvl2=2
CJ108 mout:12 CKbb:41 2.17294e-17 $lvl1=2 $lvl2=2
CJ109 mout:15 CKbb:46 1.17081e-17 $lvl1=2 $lvl2=2
CJ110 mout:16 CKbb:29 4.35533e-17 $lvl1=2 $lvl2=2