*
*|DSPF 1.5
*
*|DATE "Wed Jan  8 22:22:06 2025"
*|VENDOR "Cadence Design Systems"
*|PROGRAM "Cadence Quantus Extraction"
*|VERSION "22.1.0-p089 Linux 64 bit - (Thu Jan 19 11:47:08 PST 2023)"
*|DESIGN DFFSRX4_HS
*|DIVIDER /
*|DELIMITER :
*|DeviceFingerDelim "@"
*|BUSBIT []
*|GLOBAL_TEMPERATURE 25
*|OPERATING_TEMPERATURE 25

** *VIA_COVERAGE_CODES
** *index FF FS FP FU SF SS SP SU PF PS PP PU UF US UP UU X_by_Y
** * "FF" stands for Full landing and Full coverage
** *0 0 0 0 0 0 0 0 0 0 0 0 0 0 0 0 0
** *1 0 0 0 0 0 0 0 0 0 0 0 0 0 0 0 1 1x1
** *2 0 0 0 0 0 0 0 0 0 0 0 0 0 0 1 0 1x1
** *3 0 0 0 0 0 0 0 0 0 0 0 0 0 1 0 0 1x1
** *4 0 0 0 0 0 0 0 0 0 0 0 0 1 0 0 0 1x1
** *5 0 0 0 0 0 0 0 0 0 0 0 1 0 0 0 0 1x1
** *6 0 0 0 0 0 0 0 0 0 0 1 0 0 0 0 0 1x1
** *7 0 0 0 0 0 0 0 0 0 1 0 0 0 0 0 0 1x1
** *8 0 0 0 0 0 0 0 0 1 0 0 0 0 0 0 0 1x1
** *9 0 0 0 0 0 0 0 1 0 0 0 0 0 0 0 0 1x1
** *10 0 0 0 0 0 0 1 0 0 0 0 0 0 0 0 0 1x1
** *11 0 0 0 0 0 1 0 0 0 0 0 0 0 0 0 0 1x1
** *12 0 0 0 0 1 0 0 0 0 0 0 0 0 0 0 0 1x1
** *13 0 0 0 1 0 0 0 0 0 0 0 0 0 0 0 0 1x1
** *14 0 0 1 0 0 0 0 0 0 0 0 0 0 0 0 0 1x1
** *15 0 1 0 0 0 0 0 0 0 0 0 0 0 0 0 0 1x1
** *16 1 0 0 0 0 0 0 0 0 0 0 0 0 0 0 0 1x1

** *RESISTOR_TYPES
** *1 SHORTING_ELEMENT
** *2 PRES_NG
** *3 PRES_PG
** *4 PRES_NF
** *5 PRES_PF
** *6 TCN_NDIFF
** *7 TCN_PDIFF
** *8 TCN_NFIELD
** *9 TCN_PFIELD
** *10 QUALITY_EXTRACTED
** *11 GCNLAND
** *12 TCNLAND
** *13 DUMMY
** *14 RSD
** *15 BRIDGE

** *RESISTOR_CURRENT_DIRECTION
** *0 HORIZONTAL
** *1 VERTICAL
** *2 45 DEGREE

** QRC_TECH_DIR /vols/wfo_devel/projects/reference_SKY130/tech/sky130_release_0.0.4/quantus/extraction/typical 
** HIERARCHICAL_SPLIT_PINS_DELIMITER '%'
** caps2d version: 10
*
.SUBCKT  DFFSRX4_HS CK D Q QN RN SN
*
*Net Section
*
*|GROUND_NET VSS!
*
*LAYER_MAP
*0 none
*1 metal1
*2 li
*3 poly
*4 diff
*5 licon_diff
*6 mcon
*7 licon
*8 FOX

*|NET D 8.05536e-16
*|P (D X 0 0.9350 1.4000) // $llx=0.9350 $lly=1.4000 $urx=0.9350 $ury=1.4000 $lvl=1
*|I (Mmp25:g Mmp25 g X 0 0.9050 3.3550) // $llx=0.9050 $lly=3.3550 $urx=0.9050 $ury=3.3550 $lvl=3
*|I (Mmn25:g Mmn25 g X 0 0.9050 0.6075) // $llx=0.9050 $lly=0.6075 $urx=0.9050 $ury=0.6075 $lvl=3
*|S (D:8 0.9050 3.8950) // $llx=0.9050 $lly=3.8950 $urx=0.9050 $ury=3.8950 $lvl=3
*|S (D:9 0.9050 1.0950) // $llx=0.9050 $lly=1.0950 $urx=0.9050 $ury=1.0950 $lvl=3
*|S (D:10 0.9050 0.9300) // $llx=0.9050 $lly=0.9300 $urx=0.9050 $ury=0.9300 $lvl=3
*|S (D:11 0.9050 0.2450) // $llx=0.9050 $lly=0.2450 $urx=0.9050 $ury=0.2450 $lvl=3
*|S (D:12 1.0850 1.0950) // $llx=1.0850 $lly=1.0950 $urx=1.0850 $ury=1.0950 $lvl=2
*|S (D:13 0.9200 1.0950) // $llx=0.9200 $lly=1.0950 $urx=0.9200 $ury=1.0950 $lvl=2
*|S (D:14 0.9050 1.0950) // $llx=0.9050 $lly=1.0950 $urx=0.9050 $ury=1.0950 $lvl=2
*|S (D:15 0.5250 1.0950) // $llx=0.5250 $lly=1.0950 $urx=0.5250 $ury=1.0950 $lvl=2
*|S (D:16 0.9200 2.0450) // $llx=0.9200 $lly=2.0450 $urx=0.9200 $ury=2.0450 $lvl=1
*|S (D:17 0.9200 1.0950) // $llx=0.9200 $lly=1.0950 $urx=0.9200 $ury=1.0950 $lvl=1
*|S (D:18 0.9200 0.8050) // $llx=0.9200 $lly=0.8050 $urx=0.9200 $ury=0.8050 $lvl=1
CB1 Mmn25:g VSS! 1.51539e-18 $lvl=3
CB2 D:17 VSS! 4.65932e-18 $lvl=1
CB3 D:16 VSS! 8.26955e-18 $lvl=1
CB4 D:18 VSS! 3.33952e-18 $lvl=1
CB5 D:8 VSS! 2.86268e-18 $lvl=3
CB6 D:12 VSS! 2.90513e-18 $lvl=2
CB7 D:15 VSS! 5.15864e-18 $lvl=2
CB8 D:13 VSS! 1.72811e-18 $lvl=2
CB9 D:9 VSS! 1.64584e-17 $lvl=3
CB10 D:8 n22 1.38408e-18 $lvl1=3 $lvl2=2
CB11 D:9 Mmn26:s 1.1932e-18 $lvl1=3 $lvl2=4
CB12 D:18 n21:4 4.81551e-19 $lvl1=1 $lvl2=2
CB13 D:17 n21 4.6987e-19 $lvl1=1 $lvl2=2
CB14 D:15 n21:3 4.63249e-19 $lvl1=2 $lvl2=2
CB15 Mmn25:g n21 3.84622e-19 $lvl1=3 $lvl2=2
CB16 Mmn25:g n21:4 3.71972e-19 $lvl1=3 $lvl2=2
CB17 D:17 n21:3 3.43302e-19 $lvl1=1 $lvl2=2
CB18 D:18 n21:3 2.96542e-18 $lvl1=1 $lvl2=2
CB19 D:9 n21 2.67541e-18 $lvl1=3 $lvl2=2
CB20 D:13 n21:3 1.36165e-18 $lvl1=2 $lvl2=2
CB21 Mmn25:g n21:3 6.3207e-17 $lvl1=3 $lvl2=2
CB22 D:9 n21:3 4.91708e-18 $lvl1=3 $lvl2=2
CB23 D:12 n21 7.03856e-18 $lvl1=2 $lvl2=2
CB24 D:12 n21:3 2.58266e-18 $lvl1=2 $lvl2=2
CB25 D:8 n22:3 6.85982e-17 $lvl1=3 $lvl2=2
CB26 D:13 n21 2.72439e-18 $lvl1=2 $lvl2=2
CB27 D:18 n21 1.50371e-18 $lvl1=1 $lvl2=2
CB28 D:8 CKbb:17 1.82749e-18 $lvl1=3 $lvl2=3
CB29 D:9 CKbb:20 1.49327e-18 $lvl1=3 $lvl2=3
CB30 D:12 CKbb:44 1.41651e-18 $lvl1=2 $lvl2=2
CB31 D:16 CKbb:48 1.38405e-18 $lvl1=1 $lvl2=2
CB32 D:12 CKbb:20 1.04658e-18 $lvl1=2 $lvl2=3
CB33 D:9 CKbb:44 8.06431e-19 $lvl1=3 $lvl2=2
CB34 D:13 CKbb:44 7.45774e-19 $lvl1=2 $lvl2=2
CB35 D:16 CKbb:44 5.43083e-19 $lvl1=1 $lvl2=2
CB36 D:16 CKbb:54 5.25557e-19 $lvl1=1 $lvl2=1
CB37 D:16 CKbb:53 4.67087e-19 $lvl1=1 $lvl2=1
CB38 D:17 CKbb:54 3.97898e-19 $lvl1=1 $lvl2=1
CB39 Mmn25:g CKbb:20 3.7734e-19 $lvl1=3 $lvl2=3
CB40 D:16 CKbb:17 3.72781e-19 $lvl1=1 $lvl2=3
CB41 D:12 n20:28 3.13729e-18 $lvl1=2 $lvl2=1
CB42 D:13 n20:28 2.99043e-18 $lvl1=2 $lvl2=1
CB43 D:8 n20:15 1.79621e-18 $lvl1=3 $lvl2=2
CB44 D:12 n20:19 1.4353e-18 $lvl1=2 $lvl2=2
CB45 D:18 n20:20 1.1468e-18 $lvl1=1 $lvl2=2
CB46 D:9 n20:19 1.1224e-18 $lvl1=3 $lvl2=2
CB47 D:17 n20:30 6.76122e-19 $lvl1=1 $lvl2=1
CB48 D:9 n20:28 6.37727e-19 $lvl1=3 $lvl2=1
CB49 D:12 n20:20 5.98397e-19 $lvl1=2 $lvl2=2
CB50 D:13 n20:19 4.9017e-19 $lvl1=2 $lvl2=2
CB51 D:18 n20:19 4.51617e-19 $lvl1=1 $lvl2=2
CB52 D:16 n20:30 1.46993e-17 $lvl1=1 $lvl2=1
CB53 D:17 n20:28 1.65635e-17 $lvl1=1 $lvl2=1
CB54 D:16 n20:28 2.8316e-17 $lvl1=1 $lvl2=1
CB55 D:18 n20:28 1.36015e-17 $lvl1=1 $lvl2=1
CB56 D:9 CKb:63 3.84328e-18 $lvl1=3 $lvl2=2
CB57 D:15 CKb:66 3.6641e-18 $lvl1=2 $lvl2=1
CB58 D:9 CKb:61 3.37273e-18 $lvl1=3 $lvl2=2
CB59 D:12 CKb:61 2.97052e-18 $lvl1=2 $lvl2=2
CB60 D:9 CKb 2.43707e-18 $lvl1=3 $lvl2=3
CB61 D:16 CKb:62 2.33866e-18 $lvl1=1 $lvl2=2
CB62 D:16 CKb:64 2.04312e-18 $lvl1=1 $lvl2=1
CB63 D:9 CKb:24 1.72242e-18 $lvl1=3 $lvl2=3
CB64 D:18 CKb:66 1.70096e-18 $lvl1=1 $lvl2=1
CB65 D:15 CKb:51 1.65165e-18 $lvl1=2 $lvl2=2
CB66 D:12 CKb:63 1.61925e-18 $lvl1=2 $lvl2=2
CB67 D:13 CKb:68 1.47011e-18 $lvl1=2 $lvl2=1
CB68 D:13 CKb:61 1.45564e-18 $lvl1=2 $lvl2=2
CB69 D:13 CKb:63 1.43284e-18 $lvl1=2 $lvl2=2
CB70 D:9 CKb:50 1.36866e-18 $lvl1=3 $lvl2=2
CB71 D:15 CKb:61 1.054e-18 $lvl1=2 $lvl2=2
CB72 D:17 CKb:61 9.81246e-19 $lvl1=1 $lvl2=2
CB73 D:15 CKb:62 9.346e-19 $lvl1=2 $lvl2=2
CB74 D:13 CKb:66 9.28699e-19 $lvl1=2 $lvl2=1
CB75 D:17 CKb:63 8.5923e-19 $lvl1=1 $lvl2=2
CB76 D:12 CKb:24 8.14973e-19 $lvl1=2 $lvl2=3
CB77 D:18 CKb:51 7.73783e-19 $lvl1=1 $lvl2=2
CB78 D:16 CKb:24 7.0263e-19 $lvl1=1 $lvl2=3
CB79 D:8 CKb:46 6.10163e-19 $lvl1=3 $lvl2=2
CB80 D:9 CKb:66 5.42918e-19 $lvl1=3 $lvl2=1
CB81 Mmn25:g CKb:50 5.28563e-19 $lvl1=3 $lvl2=2
CB82 D:12 CKb 4.96713e-19 $lvl1=2 $lvl2=3
CB83 D:13 CKb:50 4.15478e-19 $lvl1=2 $lvl2=2
CB84 D:13 CKb:24 4.14715e-19 $lvl1=2 $lvl2=3
CB85 D:12 CKb:66 4.0097e-19 $lvl1=2 $lvl2=1
CB86 D:17 CKb:64 3.77926e-19 $lvl1=1 $lvl2=1
CB87 D:18 CKb:50 3.4713e-19 $lvl1=1 $lvl2=2
CB88 D:9 CKb:68 3.10915e-19 $lvl1=3 $lvl2=1
CB89 D:9 Mmn20:d 2.96605e-19 $lvl1=3 $lvl2=4
CB90 D:17 CKb:51 2.76793e-19 $lvl1=1 $lvl2=2
CB91 D:12 CKb:68 2.6075e-19 $lvl1=2 $lvl2=1
CB92 D:9 CKb:62 2.53566e-19 $lvl1=3 $lvl2=2
CB93 D:13 CKb:51 2.35784e-19 $lvl1=2 $lvl2=2
CB94 D:17 CKb:62 2.34499e-19 $lvl1=1 $lvl2=2
CB95 D:17 CKb:50 2.28483e-19 $lvl1=1 $lvl2=2
CB96 D:16 CKb:50 2.11805e-19 $lvl1=1 $lvl2=2
CB97 D:15 Mmn20:d 2.08879e-19 $lvl1=2 $lvl2=4
CB98 D:17 CKb:24 2.08505e-19 $lvl1=1 $lvl2=3
CB99 D:15 CKb:54 1.94793e-19 $lvl1=2 $lvl2=2
CB100 D:17 CKb:66 6.52432e-18 $lvl1=1 $lvl2=1
CB101 D:16 CKb:63 1.31235e-17 $lvl1=1 $lvl2=2
CB102 D:17 CKb:68 9.28183e-18 $lvl1=1 $lvl2=1
CB103 D:15 CKb:63 5.25958e-18 $lvl1=2 $lvl2=2
CB104 D:15 CKb:68 5.20334e-18 $lvl1=2 $lvl2=1
CB105 D:16 CKb:61 1.49697e-17 $lvl1=1 $lvl2=2
CB106 D:15 CKb:50 6.05911e-18 $lvl1=2 $lvl2=2
CB107 D:18 CKb:68 1.05621e-17 $lvl1=1 $lvl2=1
CB108 D:16 CKb:68 4.0623e-18 $lvl1=1 $lvl2=1
CB109 D:16 CKb:66 3.27595e-17 $lvl1=1 $lvl2=1
CB110 D:12 VSS!:52 3.39687e-18 $lvl1=2 $lvl2=2
CB111 D:17 VSS!:56 2.75499e-18 $lvl1=1 $lvl2=1
CB112 D:13 VSS!:52 2.4378e-18 $lvl1=2 $lvl2=2
CB113 D:16 VSS!:56 2.18922e-18 $lvl1=1 $lvl2=1
CB114 D:9 Mmn20:s 1.22065e-18 $lvl1=3 $lvl2=4
CB115 D:17 VSS!:52 9.16142e-19 $lvl1=1 $lvl2=2
CB116 D:18 VSS!:20 8.80923e-19 $lvl1=1 $lvl2=2
CB117 D:18 VSS!:57 5.85808e-19 $lvl1=1 $lvl2=1
CB118 D:13 VSS!:56 5.05679e-19 $lvl1=2 $lvl2=1
CB119 D:18 VSS!:17 5.02144e-19 $lvl1=1 $lvl2=2
CB120 D:9 VSS!:52 7.97055e-18 $lvl1=3 $lvl2=2
CB121 D:18 VSS!:52 4.75607e-18 $lvl1=1 $lvl2=2
CB122 Mmn25:g VSS!:52 6.48208e-17 $lvl1=3 $lvl2=2
CB123 D:18 VSS!:56 1.14833e-17 $lvl1=1 $lvl2=1
CB124 D:15 VSS!:52 1.37165e-17 $lvl1=2 $lvl2=2
CB125 Mmn25:g VSS!:20 7.61675e-18 $lvl1=3 $lvl2=2
CB126 D:17 VDD! 2.81127e-18 $lvl1=1 $lvl2=1
CB127 D:18 VDD! 2.77941e-18 $lvl1=1 $lvl2=1
CB128 D:15 VDD! 1.95298e-18 $lvl1=2 $lvl2=1
CB129 D:9 VDD! 1.38976e-18 $lvl1=3 $lvl2=1
CB130 D:8 VDD!:56 1.34381e-16 $lvl1=3 $lvl2=2
CB131 D:8 VDD!:19 1.08289e-17 $lvl1=3 $lvl2=2
CB132 D:16 VDD! 6.58197e-18 $lvl1=1 $lvl2=1
ReB14 D:16 D 0.310096 $metal1  $L=0.645 $W=0.260000 $SI_W=0.26 $TYPE=10 $DIR=1 $LLX=0.790000 $LLY=1.400000 $URX=1.050000 $URY=2.045000 $lvl=1
ReB15 D D:17 0.146635 $metal1  $L=0.305 $W=0.260000 $SI_W=0.26 $TYPE=10 $DIR=1 $LLX=0.790000 $LLY=1.095000 $URX=1.050000 $URY=1.400000 $lvl=1
ReB16 D:17 D:18 0.139423 $metal1  $L=0.29 $W=0.260000 $SI_W=0.26 $TYPE=10 $DIR=1 $LLX=0.790000 $LLY=0.805000 $URX=1.050000 $URY=1.095000 $lvl=1
RfB17 D:12 D:13 12.423529 $li  $L=0.165 $W=0.170000 $SI_W=0.17 $TYPE=10 $DIR=0 $LLX=0.920000 $LLY=1.010000 $URX=1.085000 $URY=1.180000 $lvl=2
RfB18 D:13 D:14 1.129412 $li  $L=0.015 $W=1000000 $SI_W=1000000 $TYPE=1,10 $DIR=0 $LLX=0.905000 $LLY=1.010000 $URX=0.920000 $URY=1.180000 $lvl=2
RfB19 D:14 D:15 28.611765 $li  $L=0.38 $W=0.170000 $SI_W=0.17 $TYPE=10 $DIR=0 $LLX=0.525000 $LLY=1.010000 $URX=0.905000 $URY=1.180000 $lvl=2
RgB20 D:8 Mmp25:g 173.519989 $poly  $L=0.54 $W=0.150000 $SI_W=0.15 $TYPE=10 $DIR=1 $LLX=0.830000 $LLY=3.355000 $URX=0.980000 $URY=3.895000 $lvl=3
RgB21 Mmp25:g D:9 707.372437 $poly  $L=2.26 $W=0.150000 $SI_W=0.15 $TYPE=10 $DIR=1 $LLX=0.830000 $LLY=1.095000 $URX=0.980000 $URY=3.355000 $lvl=3
RgB22 D:9 D:10 34.134449 $poly  $L=0.1645 $W=0.270000 $SI_W=0.27 $TYPE=10 $DIR=1 $LLX=0.770000 $LLY=0.930500 $URX=1.040000 $URY=1.095000 $lvl=3
RgB23 D:10 Mmn25:g 103.674629 $poly  $L=0.3225 $W=0.150000 $SI_W=0.15 $TYPE=10 $DIR=1 $LLX=0.830000 $LLY=0.607500 $URX=0.980000 $URY=0.930000 $lvl=3
RgB24 Mmn25:g D:11 116.483322 $poly  $L=0.3625 $W=0.150000 $SI_W=0.15 $TYPE=10 $DIR=1 $LLX=0.830000 $LLY=0.245000 $URX=0.980000 $URY=0.607500 $lvl=3
RjB25 D:13 D:17 152.000000 $mcon  $L=0.17 $W=0.17 $A=0.0289 $VC=0 $SAVL=0 $SAVC=0 $SI_A=0.0289 $COVER_DIR=0 $LLX=0.000000 $LLY=0.000000 $URX=0.170000 $URY=0.170000 $lvl=6
RiB26 D:9 D:14 15.000000 $licon  $L=0.17 $W=0.17 $A=0.0289 $VC=0 $SAVL=0 $SAVC=0 $SI_A=0.0289 $COVER_DIR=0 $LLX=0.000000 $LLY=0.000000 $URX=0.170000 $URY=0.170000 $lvl=7
*
*|NET n43 1.10707e-15
*|I (Mmp52:s Mmp52 s X 0 8.1395 3.3550) // $llx=8.1395 $lly=3.3550 $urx=8.1395 $ury=3.3550 $lvl=4
*|I (Mmp51:d Mmp51 d X 0 6.3905 3.3550) // $llx=6.3905 $lly=3.3550 $urx=6.3905 $ury=3.3550 $lvl=4
*|S (n43 6.5300 3.7450) // $llx=6.5300 $lly=3.7450 $urx=6.5300 $ury=3.7450 $lvl=2
*|S (n43:3 6.5300 3.3550) // $llx=6.5300 $lly=3.3550 $urx=6.5300 $ury=3.3550 $lvl=2
*|S (n43:4 6.5300 3.0900) // $llx=6.5300 $lly=3.0900 $urx=6.5300 $ury=3.0900 $lvl=2
*|S (n43:5 8.0000 3.7450) // $llx=8.0000 $lly=3.7450 $urx=8.0000 $ury=3.7450 $lvl=2
*|S (n43:7 8.0000 3.3550) // $llx=8.0000 $lly=3.3550 $urx=8.0000 $ury=3.3550 $lvl=2
*|S (n43:8 8.0000 3.0900) // $llx=8.0000 $lly=3.0900 $urx=8.0000 $ury=3.0900 $lvl=2
*|S (n43:9 8.0000 3.0900) // $llx=8.0000 $lly=3.0900 $urx=8.0000 $ury=3.0900 $lvl=1
*|S (n43:10 7.8850 3.0900) // $llx=7.8850 $lly=3.0900 $urx=7.8850 $ury=3.0900 $lvl=1
*|S (n43:11 6.6445 3.0900) // $llx=6.6445 $lly=3.0900 $urx=6.6445 $ury=3.0900 $lvl=1
*|S (n43:12 6.5300 3.0900) // $llx=6.5300 $lly=3.0900 $urx=6.5300 $ury=3.0900 $lvl=1
CO1 Mmp51:d VSS! 1.2784e-18 $lvl=4
CO2 Mmp52:s VSS! 2.95092e-18 $lvl=4
CO3 n43:11 VSS! 1.01488e-17 $lvl=1
CO4 n43:10 VSS! 1.16823e-17 $lvl=1
CO5 n43:5 VSS! 6.32111e-18 $lvl=2
CO6 n43:4 VSS! 3.28316e-18 $lvl=2
CO7 n43:8 VSS! 3.68169e-18 $lvl=2
CO8 n43 VSS! 4.55719e-18 $lvl=2
CO9 n43:11 RNb:29 5.49349e-18 $lvl1=1 $lvl2=2
CO10 Mmp52:s RNb:25 4.21674e-18 $lvl1=4 $lvl2=2
CO11 n43:5 Mmp22:d 4.11067e-18 $lvl1=2 $lvl2=4
CO12 n43:4 RNb:29 4.01085e-18 $lvl1=2 $lvl2=2
CO13 n43:11 RNb:28 3.03419e-18 $lvl1=1 $lvl2=2
CO14 n43:11 RNb:25 2.6746e-18 $lvl1=1 $lvl2=2
CO15 n43:8 RNb:25 2.04743e-18 $lvl1=2 $lvl2=2
CO16 n43:11 RNb:30 1.83603e-18 $lvl1=1 $lvl2=2
CO17 Mmp51:d RNb:24 1.7508e-18 $lvl1=4 $lvl2=3
CO18 n43 RNb:28 1.36931e-18 $lvl1=2 $lvl2=2
CO19 n43:8 RNb:28 1.21464e-18 $lvl1=2 $lvl2=2
CO20 n43:10 RNb:35 7.63682e-19 $lvl1=1 $lvl2=2
CO21 n43:10 RNb:25 1.2251e-17 $lvl1=1 $lvl2=2
CO22 n43 RNb:24 8.0538e-18 $lvl1=2 $lvl2=3
CO23 n43:5 RNb:25 4.77459e-17 $lvl1=2 $lvl2=2
CO24 n43 RNb:22 1.2802e-16 $lvl1=2 $lvl2=3
CO25 n43:5 RNb:28 6.71247e-18 $lvl1=2 $lvl2=2
CO26 n43:10 RNb:28 8.62909e-18 $lvl1=1 $lvl2=2
CO27 n43 RNb:29 1.99167e-17 $lvl1=2 $lvl2=2
CO28 n43:10 qbint:77 3.46318e-18 $lvl1=1 $lvl2=1
CO29 n43:10 qbint:75 6.23987e-19 $lvl1=1 $lvl2=2
CO30 n43:5 qbint:43 1.29309e-16 $lvl1=2 $lvl2=3
ReO562 n43:9 n43:10 0.049461 $metal1  $L=0.1145 $W=0.290000 $SI_W=0.29 $TYPE=10 $DIR=0 $LLX=7.885500 $LLY=2.945000 $URX=8.000000 $URY=3.235000 $lvl=1
ReO563 n43:10 n43:11 0.911980 $metal1  $L=1.24 $W=0.170000 $SI_W=0.17 $TYPE=10 $DIR=0 $LLX=6.645000 $LLY=3.005000 $URX=7.885000 $URY=3.175000 $lvl=1
ReO564 n43:11 n43:12 0.057878 $metal1  $L=0.1145 $W=0.290000 $SI_W=0.29 $TYPE=10 $DIR=0 $LLX=6.529500 $LLY=2.945000 $URX=6.644000 $URY=3.235000 $lvl=1
RfO565 n43 n43:3 29.364706 $li  $L=0.39 $W=0.170000 $SI_W=0.17 $TYPE=10 $DIR=1 $LLX=6.445000 $LLY=3.355000 $URX=6.615000 $URY=3.745000 $lvl=2
RfO566 n43:3 n43:4 19.952942 $li  $L=0.265 $W=0.170000 $SI_W=0.17 $TYPE=10 $DIR=1 $LLX=6.445000 $LLY=3.090000 $URX=6.615000 $URY=3.355000 $lvl=2
RfO567 n43:5 n43:7 29.364706 $li  $L=0.39 $W=0.170000 $SI_W=0.17 $TYPE=10 $DIR=1 $LLX=7.915000 $LLY=3.355000 $URX=8.085000 $URY=3.745000 $lvl=2
RfO568 n43:7 n43:8 19.952942 $li  $L=0.265 $W=0.170000 $SI_W=0.17 $TYPE=10 $DIR=1 $LLX=7.915000 $LLY=3.090000 $URX=8.085000 $URY=3.355000 $lvl=2
Rh_2_O569 Mmp51:d n43:3 7.500000 $licon_diff  $A=0.0578 $VC=0 $SAVL=0 $SAVC=0 $SI_A=0.0578 $COVER_DIR=0 $LLX=0.000000 $LLY=0.000000 $URX=-0.057800 $URY=-2.000000 $lvl=5
Rh_2_O570 Mmp52:s n43:7 7.500000 $licon_diff  $A=0.0578 $VC=0 $SAVL=0 $SAVC=0 $SI_A=0.0578 $COVER_DIR=0 $LLX=0.000000 $LLY=0.000000 $URX=-0.057800 $URY=-2.000000 $lvl=5
RjO571 n43:8 n43:9 152.000000 $mcon  $L=0.17 $W=0.17 $A=0.0289 $VC=0 $SAVL=0 $SAVC=0 $SI_A=0.0289 $COVER_DIR=0 $LLX=0.000000 $LLY=0.000000 $URX=0.170000 $URY=0.170000 $lvl=6
RjO572 n43:4 n43:12 152.000000 $mcon  $L=0.17 $W=0.17 $A=0.0289 $VC=0 $SAVL=0 $SAVC=0 $SI_A=0.0289 $COVER_DIR=0 $LLX=0.000000 $LLY=0.000000 $URX=0.170000 $URY=0.170000 $lvl=6
*
*|NET qbint 6.54193e-15
*|I (Mmp45@1:d Mmp45@1 d X 0 9.2405 3.1200) // $llx=9.2405 $lly=3.1200 $urx=9.2405 $ury=3.1200 $lvl=4
*|I (Mmp45:d Mmp45 d X 0 9.5195 3.1200) // $llx=9.5195 $lly=3.1200 $urx=9.5195 $ury=3.1200 $lvl=4
*|I (Mmp55@2:g Mmp55@2 g X 0 10.9750 3.0150) // $llx=10.9750 $lly=3.0150 $urx=10.9750 $ury=3.0150 $lvl=3
*|I (Mmp55@3:g Mmp55@3 g X 0 11.4050 3.0150) // $llx=11.4050 $lly=3.0150 $urx=11.4050 $ury=3.0150 $lvl=3
*|I (Mmp55:g Mmp55 g X 0 11.8350 3.0150) // $llx=11.8350 $lly=3.0150 $urx=11.8350 $ury=3.0150 $lvl=3
*|I (Mmp55@1:g Mmp55@1 g X 0 12.2650 3.0150) // $llx=12.2650 $lly=3.0150 $urx=12.2650 $ury=3.0150 $lvl=3
*|I (Mmp52:g Mmp52 g X 0 8.2150 3.3550) // $llx=8.2150 $lly=3.3550 $urx=8.2150 $ury=3.3550 $lvl=3
*|I (Mmp56:g Mmp56 g X 0 10.5450 3.0150) // $llx=10.5450 $lly=3.0150 $urx=10.5450 $ury=3.0150 $lvl=3
*|I (Mmn45:d Mmn45 d X 0 9.5195 0.6950) // $llx=9.5195 $lly=0.6950 $urx=9.5195 $ury=0.6950 $lvl=4
*|I (Mmn45@1:d Mmn45@1 d X 0 9.2405 0.6950) // $llx=9.2405 $lly=0.6950 $urx=9.2405 $ury=0.6950 $lvl=4
*|I (Mmn55@2:g Mmn55@2 g X 0 10.9750 0.7750) // $llx=10.9750 $lly=0.7750 $urx=10.9750 $ury=0.7750 $lvl=3
*|I (Mmn55@3:g Mmn55@3 g X 0 11.4050 0.7750) // $llx=11.4050 $lly=0.7750 $urx=11.4050 $ury=0.7750 $lvl=3
*|I (Mmn55:g Mmn55 g X 0 11.8350 0.7750) // $llx=11.8350 $lly=0.7750 $urx=11.8350 $ury=0.7750 $lvl=3
*|I (Mmn55@1:g Mmn55@1 g X 0 12.2650 0.7750) // $llx=12.2650 $lly=0.7750 $urx=12.2650 $ury=0.7750 $lvl=3
*|I (Mmn52:g Mmn52 g X 0 8.2150 0.6075) // $llx=8.2150 $lly=0.6075 $urx=8.2150 $ury=0.6075 $lvl=3
*|I (Mmn56:g Mmn56 g X 0 10.5450 0.7750) // $llx=10.5450 $lly=0.7750 $urx=10.5450 $ury=0.7750 $lvl=3
*|S (qbint 8.2150 0.6075) // $llx=8.2150 $lly=0.6075 $urx=8.2150 $ury=0.6075 $lvl=3
*|S (qbint:43 8.2150 3.8950) // $llx=8.2150 $lly=3.8950 $urx=8.2150 $ury=3.8950 $lvl=3
*|S (qbint:44 8.2150 1.4350) // $llx=8.2150 $lly=1.4350 $urx=8.2150 $ury=1.4350 $lvl=3
*|S (qbint:45 8.2150 1.2700) // $llx=8.2150 $lly=1.2700 $urx=8.2150 $ury=1.2700 $lvl=3
*|S (qbint:46 8.2150 0.2450) // $llx=8.2150 $lly=0.2450 $urx=8.2150 $ury=0.2450 $lvl=3
*|S (qbint:47 12.2650 3.8950) // $llx=12.2650 $lly=3.8950 $urx=12.2650 $ury=3.8950 $lvl=3
*|S (qbint:48 12.2650 1.4350) // $llx=12.2650 $lly=1.4350 $urx=12.2650 $ury=1.4350 $lvl=3
*|S (qbint:49 11.8350 1.4350) // $llx=11.8350 $lly=1.4350 $urx=11.8350 $ury=1.4350 $lvl=3
*|S (qbint:50 11.4050 1.4350) // $llx=11.4050 $lly=1.4350 $urx=11.4050 $ury=1.4350 $lvl=3
*|S (qbint:51 12.2650 0.2450) // $llx=12.2650 $lly=0.2450 $urx=12.2650 $ury=0.2450 $lvl=3
*|S (qbint:52 11.8350 0.2450) // $llx=11.8350 $lly=0.2450 $urx=11.8350 $ury=0.2450 $lvl=3
*|S (qbint:53 11.8350 3.8950) // $llx=11.8350 $lly=3.8950 $urx=11.8350 $ury=3.8950 $lvl=3
*|S (qbint:54 11.4050 0.2450) // $llx=11.4050 $lly=0.2450 $urx=11.4050 $ury=0.2450 $lvl=3
*|S (qbint:55 10.9750 1.4350) // $llx=10.9750 $lly=1.4350 $urx=10.9750 $ury=1.4350 $lvl=3
*|S (qbint:56 10.9750 0.2450) // $llx=10.9750 $lly=0.2450 $urx=10.9750 $ury=0.2450 $lvl=3
*|S (qbint:57 11.4050 3.8950) // $llx=11.4050 $lly=3.8950 $urx=11.4050 $ury=3.8950 $lvl=3
*|S (qbint:58 10.5450 1.4350) // $llx=10.5450 $lly=1.4350 $urx=10.5450 $ury=1.4350 $lvl=3
*|S (qbint:59 10.5450 0.2450) // $llx=10.5450 $lly=0.2450 $urx=10.5450 $ury=0.2450 $lvl=3
*|S (qbint:60 10.9750 3.8950) // $llx=10.9750 $lly=3.8950 $urx=10.9750 $ury=3.8950 $lvl=3
*|S (qbint:61 10.5450 3.8950) // $llx=10.5450 $lly=3.8950 $urx=10.5450 $ury=3.8950 $lvl=3
*|S (qbint:62 9.3800 3.7450) // $llx=9.3800 $lly=3.7450 $urx=9.3800 $ury=3.7450 $lvl=2
*|S (qbint:64 9.3800 3.1200) // $llx=9.3800 $lly=3.1200 $urx=9.3800 $ury=3.1200 $lvl=2
*|S (qbint:65 9.3800 2.9900) // $llx=9.3800 $lly=2.9900 $urx=9.3800 $ury=2.9900 $lvl=2
*|S (qbint:66 9.3800 2.4950) // $llx=9.3800 $lly=2.4950 $urx=9.3800 $ury=2.4950 $lvl=2
*|S (qbint:67 12.2150 1.4350) // $llx=12.2150 $lly=1.4350 $urx=12.2150 $ury=1.4350 $lvl=2
*|S (qbint:68 11.4050 1.4350) // $llx=11.4050 $lly=1.4350 $urx=11.4050 $ury=1.4350 $lvl=2
*|S (qbint:69 9.3800 1.4350) // $llx=9.3800 $lly=1.4350 $urx=9.3800 $ury=1.4350 $lvl=2
*|S (qbint:70 8.2150 1.4350) // $llx=8.2150 $lly=1.4350 $urx=8.2150 $ury=1.4350 $lvl=2
*|S (qbint:71 9.3800 0.8300) // $llx=9.3800 $lly=0.8300 $urx=9.3800 $ury=0.8300 $lvl=2
*|S (qbint:73 9.3800 0.6950) // $llx=9.3800 $lly=0.6950 $urx=9.3800 $ury=0.6950 $lvl=2
*|S (qbint:74 9.3800 0.3950) // $llx=9.3800 $lly=0.3950 $urx=9.3800 $ury=0.3950 $lvl=2
*|S (qbint:75 8.0500 1.4350) // $llx=8.0500 $lly=1.4350 $urx=8.0500 $ury=1.4350 $lvl=2
*|S (qbint:76 9.3800 3.3150) // $llx=9.3800 $lly=3.3150 $urx=9.3800 $ury=3.3150 $lvl=1
*|S (qbint:77 9.3800 2.9900) // $llx=9.3800 $lly=2.9900 $urx=9.3800 $ury=2.9900 $lvl=1
*|S (qbint:78 9.3800 0.8300) // $llx=9.3800 $lly=0.8300 $urx=9.3800 $ury=0.8300 $lvl=1
*|S (qbint:79 9.3800 0.6850) // $llx=9.3800 $lly=0.6850 $urx=9.3800 $ury=0.6850 $lvl=1
CO31 Mmn55@1:g VSS! 2.85862e-18 $lvl=3
CO32 Mmn55@3:g VSS! 4.10518e-18 $lvl=3
CO33 Mmn55@2:g VSS! 3.35693e-18 $lvl=3
CO34 Mmn45:d VSS! 3.23145e-18 $lvl=4
CO35 Mmp45@1:d VSS! 3.60306e-18 $lvl=4
CO36 qbint:77 VSS! 1.8754e-17 $lvl=1
CO37 qbint:76 VSS! 7.16064e-18 $lvl=1
CO38 qbint:79 VSS! 4.18661e-17 $lvl=1
CO39 qbint:47 VSS! 2.76762e-18 $lvl=3
CO40 qbint:53 VSS! 4.80528e-18 $lvl=3
CO41 qbint:57 VSS! 3.76581e-18 $lvl=3
CO42 qbint:60 VSS! 3.5934e-18 $lvl=3
CO43 qbint:61 VSS! 3.4949e-18 $lvl=3
CO44 qbint:59 VSS! 3.28331e-18 $lvl=3
CO45 qbint:52 VSS! 2.63246e-18 $lvl=3
CO46 qbint:43 VSS! 3.31858e-18 $lvl=3
CO47 qbint:68 VSS! 1.69109e-17 $lvl=2
CO48 qbint:75 VSS! 1.5772e-17 $lvl=2
CO49 qbint:74 VSS! 1.57321e-17 $lvl=2
CO50 qbint:69 VSS! 1.72494e-17 $lvl=2
CO51 qbint:62 VSS! 6.69965e-18 $lvl=2
CO52 qbint:66 VSS! 5.42836e-18 $lvl=2
CO53 qbint:71 VSS! 5.69696e-18 $lvl=2
CO54 qbint:65 VSS! 7.04861e-18 $lvl=2
CO55 qbint:44 VSS! 3.43715e-17 $lvl=3
CO56 qbint:50 VSS! 5.54249e-17 $lvl=3
CO57 qbint VSS! 5.733e-18 $lvl=3
CO58 qbint:75 n42:5 3.8133e-18 $lvl1=2 $lvl2=2
CO59 qbint:44 n42:5 3.09888e-18 $lvl1=3 $lvl2=2
CO60 qbint n42:5 6.63692e-17 $lvl1=3 $lvl2=2
CO61 qbint:68 qint:58 9.66278e-18 $lvl1=2 $lvl2=1
CO62 qbint:77 qint:58 9.18201e-18 $lvl1=1 $lvl2=1
CO63 qbint:68 qint:59 8.7324e-18 $lvl1=2 $lvl2=1
CO64 qbint:79 qint:58 7.96048e-18 $lvl1=1 $lvl2=1
CO65 qbint:69 qint:55 5.57816e-18 $lvl1=2 $lvl2=2
CO66 qbint:68 qint:48 5.2081e-18 $lvl1=2 $lvl2=2
CO67 qbint:69 qint:47 5.18109e-18 $lvl1=2 $lvl2=2
CO68 qbint:69 qint:58 3.89882e-18 $lvl1=2 $lvl2=1
CO69 qbint:50 qint:47 3.7295e-18 $lvl1=3 $lvl2=2
CO70 qbint:69 qint:59 2.77166e-18 $lvl1=2 $lvl2=1
CO71 qbint:47 qint:53 2.69535e-18 $lvl1=3 $lvl2=2
CO72 qbint:77 qint:59 2.37609e-18 $lvl1=1 $lvl2=1
CO73 qbint:61 qint:55 2.2873e-18 $lvl1=3 $lvl2=2
CO74 qbint:76 qint:57 2.17566e-18 $lvl1=1 $lvl2=1
CO75 qbint:60 qint:55 2.16742e-18 $lvl1=3 $lvl2=2
CO76 qbint:77 qint:45 2.00237e-18 $lvl1=1 $lvl2=2
CO77 qbint:69 qint:54 2.00162e-18 $lvl1=2 $lvl2=2
CO78 qbint:79 qint:48 1.79026e-18 $lvl1=1 $lvl2=2
CO79 qbint:57 qint:55 1.69028e-18 $lvl1=3 $lvl2=2
CO80 qbint:79 qint:57 1.66777e-18 $lvl1=1 $lvl2=1
CO81 qbint:69 qint:48 1.64109e-18 $lvl1=2 $lvl2=2
CO82 qbint:77 qint:42 1.57416e-18 $lvl1=1 $lvl2=2
CO83 qbint:79 qint:60 1.55466e-18 $lvl1=1 $lvl2=1
CO84 qbint:53 qint:53 1.53983e-18 $lvl1=3 $lvl2=2
CO85 qbint:77 qint:54 1.50023e-18 $lvl1=1 $lvl2=2
CO86 qbint:77 qint:56 1.32955e-18 $lvl1=1 $lvl2=1
CO87 qbint:50 qint:32 1.24077e-18 $lvl1=3 $lvl2=3
CO88 qbint:71 qint:59 1.22189e-18 $lvl1=2 $lvl2=1
CO89 qbint:77 qint:55 1.17674e-18 $lvl1=1 $lvl2=2
CO90 qbint:62 qint:57 1.1365e-18 $lvl1=2 $lvl2=1
CO91 qbint:50 qint 1.0387e-18 $lvl1=3 $lvl2=3
CO92 qbint:47 qint:32 1.01362e-18 $lvl1=3 $lvl2=3
CO93 qbint:61 qint:46 9.44324e-19 $lvl1=3 $lvl2=2
CO94 qbint:62 qint:42 9.3975e-19 $lvl1=2 $lvl2=2
CO95 qbint:79 qint:47 9.13833e-19 $lvl1=1 $lvl2=2
CO96 qbint:77 qint:46 8.55597e-19 $lvl1=1 $lvl2=2
CO97 qbint:79 qint:54 8.45086e-19 $lvl1=1 $lvl2=2
CO98 qbint:74 qint:47 8.33658e-19 $lvl1=2 $lvl2=2
CO99 Mmn55@1:g qint:53 8.28782e-19 $lvl1=3 $lvl2=2
CO100 qbint:50 Mmn56:d 7.63411e-19 $lvl1=3 $lvl2=4
CO101 qbint:65 qint:57 7.47133e-19 $lvl1=2 $lvl2=1
CO102 qbint:79 qint:55 6.81284e-19 $lvl1=1 $lvl2=2
CO103 qbint:61 qint:42 2.48262e-16 $lvl1=3 $lvl2=2
CO104 qbint:77 qint:57 2.09935e-17 $lvl1=1 $lvl2=1
CO105 qbint:68 qint:55 8.60619e-17 $lvl1=2 $lvl2=2
CO106 qbint:50 qint:55 3.4686e-17 $lvl1=3 $lvl2=2
CO107 qbint:68 qint:54 1.02502e-17 $lvl1=2 $lvl2=2
CO108 qbint:68 qint:47 2.18979e-17 $lvl1=2 $lvl2=2
CO109 qbint:79 qint:59 1.34133e-17 $lvl1=1 $lvl2=1
CO110 qbint:50 qint:53 2.04964e-17 $lvl1=3 $lvl2=2
CO111 qbint:59 qint:47 1.30723e-16 $lvl1=3 $lvl2=2
CO112 qbint:68 qint:53 4.16719e-17 $lvl1=2 $lvl2=2
CO113 qbint:75 RNb:35 4.49048e-18 $lvl1=2 $lvl2=2
CO114 qbint:44 RNb:35 3.51443e-18 $lvl1=3 $lvl2=2
CO115 qbint VSS!:14 9.6768e-18 $lvl1=3 $lvl2=2
CO116 qbint:79 VSS!:37 8.70326e-18 $lvl1=1 $lvl2=2
CO117 qbint:59 VSS!:13 7.76726e-18 $lvl1=3 $lvl2=2
CO118 Mmn55@2:g VSS!:13 7.33445e-18 $lvl1=3 $lvl2=2
CO119 qbint:52 VSS!:9 6.7285e-18 $lvl1=3 $lvl2=2
CO120 Mmn55@3:g VSS!:9 6.4371e-18 $lvl1=3 $lvl2=2
CO121 Mmn55@1:g VSS!:8 6.08049e-18 $lvl1=3 $lvl2=2
CO122 qbint:68 VSS!:28 5.95861e-18 $lvl1=2 $lvl2=2
CO123 qbint:79 VSS!:40 5.64861e-18 $lvl1=1 $lvl2=2
CO124 qbint:71 VSS!:40 5.26281e-18 $lvl1=2 $lvl2=2
CO125 qbint:75 VSS!:40 4.41738e-18 $lvl1=2 $lvl2=2
CO126 qbint:50 VSS!:28 3.75396e-18 $lvl1=3 $lvl2=2
CO127 qbint:74 VSS!:11 3.35636e-18 $lvl1=2 $lvl2=2
CO128 qbint:71 VSS!:37 3.16321e-18 $lvl1=2 $lvl2=2
CO129 Mmn55@1:g VSS!:9 2.69757e-18 $lvl1=3 $lvl2=2
CO130 qbint:50 Mmn55@3:s 2.58579e-18 $lvl1=3 $lvl2=4
CO131 Mmn55@3:g VSS!:31 1.23122e-16 $lvl1=3 $lvl2=2
CO132 qbint:68 VSS!:31 1.59859e-17 $lvl1=2 $lvl2=2
CO133 qbint:74 VSS!:14 1.24831e-17 $lvl1=2 $lvl2=2
CO134 qbint:50 VSS!:31 1.39301e-17 $lvl1=3 $lvl2=2
CO135 qbint:74 VSS!:13 1.14402e-17 $lvl1=2 $lvl2=2
CO136 qbint:59 VSS!:34 1.29367e-16 $lvl1=3 $lvl2=2
CO137 qbint:74 VSS!:40 3.68507e-17 $lvl1=2 $lvl2=2
CO138 qbint:74 VSS!:37 3.76043e-17 $lvl1=2 $lvl2=2
CO139 Mmn55@1:g VSS!:28 1.28937e-16 $lvl1=3 $lvl2=2
CO140 qbint:69 VSS!:40 1.03992e-17 $lvl1=2 $lvl2=2
CO141 Mmn55@2:g VSS!:34 1.26247e-16 $lvl1=3 $lvl2=2
CO142 qbint:69 VSS!:37 1.27504e-17 $lvl1=2 $lvl2=2
CO143 qbint:50 VSS!:34 1.46131e-17 $lvl1=3 $lvl2=2
CO144 qbint:52 VSS!:31 1.27543e-16 $lvl1=3 $lvl2=2
CO145 qbint:68 VSS!:34 2.15563e-17 $lvl1=2 $lvl2=2
ReO573 qbint:76 qbint:77 0.176630 $metal1  $L=0.325 $W=0.230000 $SI_W=0.23 $TYPE=10 $DIR=1 $LLX=9.265000 $LLY=2.990000 $URX=9.495000 $URY=3.315000 $lvl=1
ReO574 qbint:77 qbint:78 1.173913 $metal1  $L=2.16 $W=0.230000 $SI_W=0.23 $TYPE=10 $DIR=1 $LLX=9.265000 $LLY=0.830000 $URX=9.495000 $URY=2.990000 $lvl=1
ReO575 qbint:78 qbint:79 0.078804 $metal1  $L=0.145 $W=0.230000 $SI_W=0.23 $TYPE=10 $DIR=1 $LLX=9.265000 $LLY=0.685000 $URX=9.495000 $URY=0.830000 $lvl=1
RfO576 qbint:62 qbint:64 47.058826 $li  $L=0.625 $W=0.170000 $SI_W=0.17 $TYPE=10 $DIR=1 $LLX=9.295000 $LLY=3.120000 $URX=9.465000 $URY=3.745000 $lvl=2
RfO577 qbint:64 qbint:65 3.139623 $li  $L=0.13 $W=0.170000 $SI_W=0.53 $TYPE=10 $DIR=1 $LLX=9.295000 $LLY=2.990000 $URX=9.465000 $URY=3.120000 $lvl=2
RfO578 qbint:65 qbint:66 37.270588 $li  $L=0.495 $W=0.170000 $SI_W=0.17 $TYPE=10 $DIR=1 $LLX=9.295000 $LLY=2.495000 $URX=9.465000 $URY=2.990000 $lvl=2
RfO579 qbint:67 qbint:68 60.988232 $li  $L=0.81 $W=0.170000 $SI_W=0.17 $TYPE=10 $DIR=0 $LLX=11.405000 $LLY=1.350000 $URX=12.215000 $URY=1.520000 $lvl=2
RfO580 qbint:68 qbint:69 152.451767 $li  $L=2.02475 $W=0.170000 $SI_W=0.17 $TYPE=10 $DIR=0 $LLX=9.380000 $LLY=1.350000 $URX=11.405000 $URY=1.520000 $lvl=2
RfO581 qbint:69 qbint:70 87.736465 $li  $L=1.16525 $W=0.170000 $SI_W=0.17 $TYPE=10 $DIR=0 $LLX=8.215000 $LLY=1.350000 $URX=9.380000 $URY=1.520000 $lvl=2
RfO582 qbint:69 qbint:71 45.571766 $li  $L=0.60525 $W=0.170000 $SI_W=0.17 $TYPE=10 $DIR=1 $LLX=9.295000 $LLY=0.830000 $URX=9.465000 $URY=1.435000 $lvl=2
RfO583 qbint:71 qbint:73 10.164705 $li  $L=0.135 $W=0.170000 $SI_W=0.17 $TYPE=10 $DIR=1 $LLX=9.295000 $LLY=0.695000 $URX=9.465000 $URY=0.830000 $lvl=2
RfO584 qbint:73 qbint:74 22.588236 $li  $L=0.3 $W=0.170000 $SI_W=0.17 $TYPE=10 $DIR=1 $LLX=9.295000 $LLY=0.395000 $URX=9.465000 $URY=0.695000 $lvl=2
RfO585 qbint:70 qbint:75 12.423529 $li  $L=0.165 $W=0.170000 $SI_W=0.17 $TYPE=10 $DIR=0 $LLX=8.050000 $LLY=1.350000 $URX=8.215000 $URY=1.520000 $lvl=2
RgO586 qbint:43 Mmp52:g 173.519989 $poly  $L=0.54 $W=0.150000 $SI_W=0.15 $TYPE=10 $DIR=1 $LLX=8.140000 $LLY=3.355000 $URX=8.290000 $URY=3.895000 $lvl=3
RgO587 Mmp52:g qbint:44 598.119080 $poly  $L=1.92 $W=0.150000 $SI_W=0.15 $TYPE=10 $DIR=1 $LLX=8.140000 $LLY=1.435000 $URX=8.290000 $URY=3.355000 $lvl=3
RgO588 qbint:44 qbint:45 34.134449 $poly  $L=0.1645 $W=0.270000 $SI_W=0.27 $TYPE=10 $DIR=1 $LLX=8.080000 $LLY=1.270500 $URX=8.350000 $URY=1.435000 $lvl=3
RgO589 qbint:45 qbint 212.927963 $poly  $L=0.6625 $W=0.150000 $SI_W=0.15 $TYPE=10 $DIR=1 $LLX=8.140000 $LLY=0.607500 $URX=8.290000 $URY=1.270000 $lvl=3
RgO590 qbint qbint:46 116.483322 $poly  $L=0.3625 $W=0.150000 $SI_W=0.15 $TYPE=10 $DIR=1 $LLX=8.140000 $LLY=0.245000 $URX=8.290000 $URY=0.607500 $lvl=3
RgO591 qbint:47 Mmp55@1:g 282.773346 $poly  $L=0.88 $W=0.150000 $SI_W=0.15 $TYPE=10 $DIR=1 $LLX=12.190000 $LLY=3.015000 $URX=12.340000 $URY=3.895000 $lvl=3
RgO592 Mmp55@1:g qbint:48 507.626343 $poly  $L=1.57975 $W=0.150000 $SI_W=0.15 $TYPE=10 $DIR=1 $LLX=12.190000 $LLY=1.435000 $URX=12.340000 $URY=3.015000 $lvl=3
RgO593 qbint:48 qbint:49 76.762962 $poly  $L=0.43 $W=0.270000 $SI_W=0.27 $TYPE=10 $DIR=0 $LLX=11.835000 $LLY=1.300000 $URX=12.265000 $URY=1.570000 $lvl=3
RgO594 qbint:49 qbint:50 76.807594 $poly  $L=0.43025 $W=0.270000 $SI_W=0.27 $TYPE=10 $DIR=0 $LLX=11.405000 $LLY=1.300000 $URX=11.835000 $URY=1.570000 $lvl=3
RgO595 qbint:48 Mmn55@1:g 212.160324 $poly  $L=0.66025 $W=0.150000 $SI_W=0.15 $TYPE=10 $DIR=1 $LLX=12.190000 $LLY=0.775000 $URX=12.340000 $URY=1.435000 $lvl=3
RgO596 Mmn55@1:g qbint:51 170.306671 $poly  $L=0.53 $W=0.150000 $SI_W=0.15 $TYPE=10 $DIR=1 $LLX=12.190000 $LLY=0.245000 $URX=12.340000 $URY=0.775000 $lvl=3
RgO597 qbint:49 Mmn55:g 192.844620 $poly  $L=0.66025 $W=0.150000 $SI_W=0.15 $TYPE=10 $DIR=1 $LLX=11.760000 $LLY=0.775000 $URX=11.910000 $URY=1.435000 $lvl=3
RgO598 Mmn55:g qbint:52 170.306671 $poly  $L=0.53 $W=0.150000 $SI_W=0.15 $TYPE=10 $DIR=1 $LLX=11.760000 $LLY=0.245000 $URX=11.910000 $URY=0.775000 $lvl=3
RgO599 qbint:49 Mmp55:g 488.382050 $poly  $L=1.57975 $W=0.150000 $SI_W=0.15 $TYPE=10 $DIR=1 $LLX=11.760000 $LLY=1.435000 $URX=11.910000 $URY=3.015000 $lvl=3
RgO600 Mmp55:g qbint:53 282.773346 $poly  $L=0.88 $W=0.150000 $SI_W=0.15 $TYPE=10 $DIR=1 $LLX=11.760000 $LLY=3.015000 $URX=11.910000 $URY=3.895000 $lvl=3
RgO601 qbint:50 Mmn55@3:g 192.800003 $poly  $L=0.66 $W=0.150000 $SI_W=0.15 $TYPE=10 $DIR=1 $LLX=11.330000 $LLY=0.775000 $URX=11.480000 $URY=1.435000 $lvl=3
RgO602 Mmn55@3:g qbint:54 170.306671 $poly  $L=0.53 $W=0.150000 $SI_W=0.15 $TYPE=10 $DIR=1 $LLX=11.330000 $LLY=0.245000 $URX=11.480000 $URY=0.775000 $lvl=3
RgO603 qbint:50 qbint:55 76.718338 $poly  $L=0.42975 $W=0.270000 $SI_W=0.27 $TYPE=10 $DIR=0 $LLX=10.975000 $LLY=1.300000 $URX=11.405000 $URY=1.570000 $lvl=3