*
*|DSPF 1.5
*
*|DATE "Wed Jan  8 22:03:34 2025"
*|VENDOR "Cadence Design Systems"
*|PROGRAM "Cadence Quantus Extraction"
*|VERSION "22.1.0-p089 Linux 64 bit - (Thu Jan 19 11:47:08 PST 2023)"
*|DESIGN DFFX1_HS
*|DIVIDER /
*|DELIMITER :
*|DeviceFingerDelim "@"
*|BUSBIT []
*|GLOBAL_TEMPERATURE 25
*|OPERATING_TEMPERATURE 25

** *VIA_COVERAGE_CODES
** *index FF FS FP FU SF SS SP SU PF PS PP PU UF US UP UU X_by_Y
** * "FF" stands for Full landing and Full coverage
** *0 0 0 0 0 0 0 0 0 0 0 0 0 0 0 0 0
** *1 0 0 0 0 0 0 0 0 0 0 0 0 0 0 0 1 1x1
** *2 0 0 0 0 0 0 0 0 0 0 0 0 0 0 1 0 1x1
** *3 0 0 0 0 0 0 0 0 0 0 0 0 0 1 0 0 1x1
** *4 0 0 0 0 0 0 0 0 0 0 0 0 1 0 0 0 1x1
** *5 0 0 0 0 0 0 0 0 0 0 0 1 0 0 0 0 1x1
** *6 0 0 0 0 0 0 0 0 0 0 1 0 0 0 0 0 1x1
** *7 0 0 0 0 0 0 0 0 0 1 0 0 0 0 0 0 1x1
** *8 0 0 0 0 0 0 0 0 1 0 0 0 0 0 0 0 1x1
** *9 0 0 0 0 0 0 0 1 0 0 0 0 0 0 0 0 1x1
** *10 0 0 0 0 0 0 1 0 0 0 0 0 0 0 0 0 1x1
** *11 0 0 0 0 0 1 0 0 0 0 0 0 0 0 0 0 1x1
** *12 0 0 0 0 1 0 0 0 0 0 0 0 0 0 0 0 1x1
** *13 0 0 0 1 0 0 0 0 0 0 0 0 0 0 0 0 1x1
** *14 0 0 1 0 0 0 0 0 0 0 0 0 0 0 0 0 1x1
** *15 0 1 0 0 0 0 0 0 0 0 0 0 0 0 0 0 1x1
** *16 1 0 0 0 0 0 0 0 0 0 0 0 0 0 0 0 1x1

** *RESISTOR_TYPES
** *1 SHORTING_ELEMENT
** *2 PRES_NG
** *3 PRES_PG
** *4 PRES_NF
** *5 PRES_PF
** *6 TCN_NDIFF
** *7 TCN_PDIFF
** *8 TCN_NFIELD
** *9 TCN_PFIELD
** *10 QUALITY_EXTRACTED
** *11 GCNLAND
** *12 TCNLAND
** *13 DUMMY
** *14 RSD
** *15 BRIDGE

** *RESISTOR_CURRENT_DIRECTION
** *0 HORIZONTAL
** *1 VERTICAL
** *2 45 DEGREE

** QRC_TECH_DIR /vols/wfo_devel/projects/reference_SKY130/tech/sky130_release_0.0.4/quantus/extraction/typical 
** HIERARCHICAL_SPLIT_PINS_DELIMITER '%'
** caps2d version: 10
*
.SUBCKT  DFFX1_HS CK D Q QN
*
*Net Section
*
*|GROUND_NET VSS!
*
*LAYER_MAP
*0 none
*1 metal1
*2 li
*3 poly
*4 diff
*5 licon_diff
*6 mcon
*7 licon
*8 FOX

*|NET Q 1.61844e-15
*|P (Q X 0 6.9150 2.0000) // $llx=6.9150 $lly=2.0000 $urx=6.9150 $ury=2.0000 $lvl=1
*|I (Mmp55:d Mmp55 d X 0 7.1195 3.0150) // $llx=7.1195 $lly=3.0150 $urx=7.1195 $ury=3.0150 $lvl=4
*|I (Mmn55:d Mmn55 d X 0 7.1195 0.7750) // $llx=7.1195 $lly=0.7750 $urx=7.1195 $ury=0.7750 $lvl=4
*|S (Q:1 6.9800 3.7450) // $llx=6.9800 $lly=3.7450 $urx=6.9800 $ury=3.7450 $lvl=2
*|S (Q:3 6.9800 3.0150) // $llx=6.9800 $lly=3.0150 $urx=6.9800 $ury=3.0150 $lvl=2
*|S (Q:4 6.9800 2.9850) // $llx=6.9800 $lly=2.9850 $urx=6.9800 $ury=2.9850 $lvl=2
*|S (Q:5 6.9800 1.1550) // $llx=6.9800 $lly=1.1550 $urx=6.9800 $ury=1.1550 $lvl=2
*|S (Q:6 6.9800 0.7900) // $llx=6.9800 $lly=0.7900 $urx=6.9800 $ury=0.7900 $lvl=2
*|S (Q:8 6.9800 0.7750) // $llx=6.9800 $lly=0.7750 $urx=6.9800 $ury=0.7750 $lvl=2
*|S (Q:9 6.9800 0.3950) // $llx=6.9800 $lly=0.3950 $urx=6.9800 $ury=0.3950 $lvl=2
*|S (Q:10 6.9800 2.9850) // $llx=6.9800 $lly=2.9850 $urx=6.9800 $ury=2.9850 $lvl=1
*|S (Q:11 6.9325 3.4500) // $llx=6.9325 $lly=3.4500 $urx=6.9325 $ury=3.4500 $lvl=1
*|S (Q:12 6.9800 3.6695) // $llx=6.9800 $lly=3.6695 $urx=6.9800 $ury=3.6695 $lvl=1
*|S (Q:13 6.9800 0.7900) // $llx=6.9800 $lly=0.7900 $urx=6.9800 $ury=0.7900 $lvl=1
*|S (Q:14 6.9325 0.4650) // $llx=6.9325 $lly=0.4650 $urx=6.9325 $ury=0.4650 $lvl=1
CC1 Mmn55:d VSS! 2.88554e-18 $lvl=4
CC2 Mmp55:d VSS! 3.00906e-18 $lvl=4
CC3 Q:13 VSS! 6.73011e-18 $lvl=1
CC4 Q:10 VSS! 9.68332e-18 $lvl=1
CC5 Q:12 VSS! 4.01242e-18 $lvl=1
CC6 Q:5 VSS! 1.24396e-17 $lvl=2
CC7 Q:9 VSS! 1.44569e-18 $lvl=2
CC8 Q:1 VSS! 7.2443e-18 $lvl=2
CC9 Q:6 VSS! 2.49792e-18 $lvl=2
CC10 Q:4 VSS! 4.36931e-18 $lvl=2
CC11 Q:10 qint:21 7.87853e-18 $lvl1=1 $lvl2=2
CC12 Q:13 qint:24 7.06166e-18 $lvl1=1 $lvl2=2
CC13 Q:13 qint:17 6.5745e-18 $lvl1=1 $lvl2=2
CC14 Q:6 qint:17 6.27128e-18 $lvl1=2 $lvl2=2
CC15 Q:4 qint:26 5.93962e-18 $lvl1=2 $lvl2=1
CC16 Q:13 qint:29 5.75908e-18 $lvl1=1 $lvl2=1
CC17 Q:10 qint:15 5.71561e-18 $lvl1=1 $lvl2=2
CC18 Q:13 qint:21 5.55075e-18 $lvl1=1 $lvl2=2
CC19 Q:12 qint:25 5.47975e-18 $lvl1=1 $lvl2=1
CC20 Mmp55:d qint:15 4.63642e-18 $lvl1=4 $lvl2=2
CC21 Q:5 qint:21 4.50591e-18 $lvl1=2 $lvl2=2
CC22 Mmn55:d qint:17 3.24871e-18 $lvl1=4 $lvl2=2
CC23 Q:10 qint:23 2.97908e-18 $lvl1=1 $lvl2=2
CC24 Q:12 qint:15 2.97066e-18 $lvl1=1 $lvl2=2
CC25 Q:5 Mmn56:d 2.69361e-18 $lvl1=2 $lvl2=4
CC26 Q:9 qint:17 2.66524e-18 $lvl1=2 $lvl2=2
CC27 Q:1 qint:26 2.40402e-18 $lvl1=2 $lvl2=1
CC28 Q:10 qint:28 1.93826e-18 $lvl1=1 $lvl2=1
CC29 Q:5 qint:20 1.9259e-18 $lvl1=2 $lvl2=2
CC30 Q:6 qint:28 1.89061e-18 $lvl1=2 $lvl2=1
CC31 Q:13 qint:23 1.77624e-18 $lvl1=1 $lvl2=2
CC32 Q:5 qint:28 1.49483e-18 $lvl1=2 $lvl2=1
CC33 Q:9 qint:20 9.48133e-19 $lvl1=2 $lvl2=2
CC34 Q:5 qint 8.91563e-19 $lvl1=2 $lvl2=3
CC35 Q:6 qint:24 8.86557e-19 $lvl1=2 $lvl2=2
CC36 Q:5 qint:23 7.99549e-19 $lvl1=2 $lvl2=2
CC37 Q:1 qint:27 7.43642e-19 $lvl1=2 $lvl2=1
CC38 Q:6 qint:20 7.05993e-19 $lvl1=2 $lvl2=2
CC39 Q:5 qint:27 6.62552e-19 $lvl1=2 $lvl2=1
CC40 Q:13 qint:26 6.51606e-19 $lvl1=1 $lvl2=1
CC41 Q:5 qint:9 6.45685e-19 $lvl1=2 $lvl2=3
CC42 Q:1 qint:24 6.41732e-19 $lvl1=2 $lvl2=2
CC43 Q:6 qint:21 5.85802e-19 $lvl1=2 $lvl2=2
CC44 Q:10 qint:25 5.56048e-19 $lvl1=1 $lvl2=1
CC45 Q:10 qint:26 1.00615e-16 $lvl1=1 $lvl2=1
CC46 Q:10 qint:27 6.56286e-17 $lvl1=1 $lvl2=1
CC47 Q:13 qint:27 2.59072e-17 $lvl1=1 $lvl2=1
CC48 Q:1 qint:15 6.48934e-17 $lvl1=2 $lvl2=2
CC49 Q:5 qint:17 3.78419e-17 $lvl1=2 $lvl2=2
CC50 Q:5 qint:24 9.28185e-18 $lvl1=2 $lvl2=2
CC51 Q:13 qint:28 7.26978e-17 $lvl1=1 $lvl2=1
CC52 Q:1 Mmp56:d 8.57402e-18 $lvl1=2 $lvl2=4
CC53 Q:12 qint:26 2.92753e-17 $lvl1=1 $lvl2=1
CC54 Q:10 qint:24 9.07034e-18 $lvl1=1 $lvl2=2
CC55 Q:4 qint:15 1.72456e-17 $lvl1=2 $lvl2=2
CC56 Q:1 qbint:48 3.30862e-18 $lvl1=2 $lvl2=2
CC57 Q:4 qbint:46 3.06473e-18 $lvl1=2 $lvl2=2
CC58 Q:10 qbint:48 2.85701e-18 $lvl1=1 $lvl2=2
CC59 Q:10 qbint:54 2.80261e-18 $lvl1=1 $lvl2=1
CC60 Q:1 qbint:26 2.19332e-18 $lvl1=2 $lvl2=3
CC61 Q:10 qbint:53 2.12138e-18 $lvl1=1 $lvl2=1
CC62 Q:1 qbint:28 1.79176e-18 $lvl1=2 $lvl2=3
CC63 Mmp55:d qbint:33 1.51138e-18 $lvl1=4 $lvl2=3
CC64 Q:13 qbint:55 1.4491e-18 $lvl1=1 $lvl2=1
CC65 Q:13 qbint:54 1.41925e-18 $lvl1=1 $lvl2=1
CC66 Q:5 qbint:33 1.32617e-18 $lvl1=2 $lvl2=3
CC67 Q:5 qbint:30 1.2268e-18 $lvl1=2 $lvl2=3
CC68 Q:4 qbint:48 1.03148e-18 $lvl1=2 $lvl2=2
CC69 Q:10 qbint:33 9.87637e-19 $lvl1=1 $lvl2=3
CC70 Q:13 qbint:46 9.1251e-19 $lvl1=1 $lvl2=2
CC71 Q:10 qbint:55 8.73855e-19 $lvl1=1 $lvl2=1
CC72 Q:12 qbint:53 8.23113e-19 $lvl1=1 $lvl2=1
CC73 Mmp55:d qbint:28 5.96453e-19 $lvl1=4 $lvl2=3
CC74 Q:9 qbint:35 5.32387e-19 $lvl1=2 $lvl2=3
CC75 Q:5 qbint:28 4.78377e-19 $lvl1=2 $lvl2=3
CC76 Q:5 qbint:35 1.28415e-16 $lvl1=2 $lvl2=3
CC77 Q:1 qbint:31 2.53101e-16 $lvl1=2 $lvl2=3
CC78 Q:1 qbint:46 1.59274e-17 $lvl1=2 $lvl2=2
CC79 Q:10 qbint:46 1.85083e-17 $lvl1=1 $lvl2=2
CC80 Q:1 qbint:33 9.84837e-18 $lvl1=2 $lvl2=3
CC81 Q:6 VSS!:3 5.50275e-18 $lvl1=2 $lvl2=2
CC82 Q:9 VSS!:3 4.66737e-18 $lvl1=2 $lvl2=2
CC83 Q:6 VSS!:14 2.87723e-18 $lvl1=2 $lvl2=2
CC84 Mmn55:d VSS!:14 2.76253e-18 $lvl1=4 $lvl2=2
CC85 Q:13 VSS!:14 2.62456e-18 $lvl1=1 $lvl2=2
CC86 Q:5 VSS!:5 2.38404e-18 $lvl1=2 $lvl2=2
CC87 Q:10 VSS!:33 1.91907e-18 $lvl1=1 $lvl2=1
CC88 Q:9 VSS!:7 1.89538e-18 $lvl1=2 $lvl2=2
CC89 Q:5 VSS!:8 1.81921e-18 $lvl1=2 $lvl2=4
CC90 Q:6 VSS!:33 1.72485e-18 $lvl1=2 $lvl2=1
CC91 Q:9 VSS!:5 1.63945e-18 $lvl1=2 $lvl2=2
CC92 Q:13 VSS!:7 1.46629e-18 $lvl1=1 $lvl2=2
CC93 Q:13 VSS!:31 1.3733e-18 $lvl1=1 $lvl2=1
CC94 Q:6 VSS!:7 1.23548e-18 $lvl1=2 $lvl2=2
CC95 Q:6 VSS!:32 1.09398e-18 $lvl1=2 $lvl2=1
CC96 Q:9 VSS!:33 9.76579e-19 $lvl1=2 $lvl2=1
CC97 Mmn55:d VSS!:5 8.71962e-19 $lvl1=4 $lvl2=2
CC98 Q:10 VSS!:3 7.84897e-19 $lvl1=1 $lvl2=2
CC99 Q:13 VSS!:5 7.49694e-19 $lvl1=1 $lvl2=2
CC100 Q:5 VSS!:14 9.47436e-18 $lvl1=2 $lvl2=2
CC101 Q:13 VSS!:33 3.16416e-17 $lvl1=1 $lvl2=1
CC102 Q:13 VSS!:3 8.77703e-18 $lvl1=1 $lvl2=2
CC103 Q:9 VSS!:14 1.16553e-17 $lvl1=2 $lvl2=2
CC104 Q:5 VSS!:3 5.03482e-17 $lvl1=2 $lvl2=2
CC105 Q:13 VSS!:32 1.61358e-17 $lvl1=1 $lvl2=1
CC106 Q:12 VDD! 4.6747e-18 $lvl1=1 $lvl2=1
CC107 Q:1 VDD!:21 4.65048e-18 $lvl1=2 $lvl2=2
CC108 Q:12 VDD!:27 4.60868e-18 $lvl1=1 $lvl2=2
CC109 Q:10 VDD!:33 3.65742e-18 $lvl1=1 $lvl2=1
CC110 Q:10 VDD!:32 2.81526e-18 $lvl1=1 $lvl2=1
CC111 Q:12 VDD!:29 2.66801e-18 $lvl1=1 $lvl2=2
CC112 Q:1 VDD!:15 2.41336e-18 $lvl1=2 $lvl2=4
CC113 Q:1 VDD!:14 2.17513e-18 $lvl1=2 $lvl2=2
CC114 Mmp55:d VDD!:29 1.96589e-18 $lvl1=4 $lvl2=2
CC115 Q:4 VDD!:29 1.81606e-18 $lvl1=2 $lvl2=2
CC116 Q:1 VDD!:33 1.78449e-18 $lvl1=2 $lvl2=1
CC117 Q:1 Mmp55:s 1.42987e-18 $lvl1=2 $lvl2=4
CC118 Q:4 VDD!:33 1.3516e-18 $lvl1=2 $lvl2=1
CC119 Q:1 VDD!:24 1.29078e-18 $lvl1=2 $lvl2=2
CC120 Q:12 VDD!:14 1.24849e-18 $lvl1=1 $lvl2=2
CC121 Q:13 VDD!:33 9.72167e-19 $lvl1=1 $lvl2=1
CC122 Q:1 VDD!:32 7.96174e-19 $lvl1=2 $lvl2=1
CC123 Q:4 VDD!:32 7.87596e-19 $lvl1=2 $lvl2=1
CC124 Q:12 VDD!:33 2.51779e-17 $lvl1=1 $lvl2=1
CC125 Q:4 VDD!:27 3.17079e-17 $lvl1=2 $lvl2=2
CC126 Q:10 VDD!:27 1.24196e-17 $lvl1=1 $lvl2=2
CC127 Q:13 VDD! 1.01632e-17 $lvl1=1 $lvl2=1
CC128 Q:10 VDD! 1.33327e-17 $lvl1=1 $lvl2=1
CC129 Q:1 VDD!:29 2.31925e-17 $lvl1=2 $lvl2=2
CC130 Q:12 VDD!:32 1.51757e-17 $lvl1=1 $lvl2=1
CC131 Q:1 VDD!:27 8.93713e-17 $lvl1=2 $lvl2=2
CC132 Q:1 VDD! 2.51106e-17 $lvl1=2 $lvl2=1
CC133 Q:13 QN:10 5.06261e-18 $lvl1=1 $lvl2=1
CC134 Q:10 QN:12 4.05604e-18 $lvl1=1 $lvl2=1
CC135 Q:12 QN:12 3.63204e-18 $lvl1=1 $lvl2=1
CC136 Q:12 QN:13 3.31072e-18 $lvl1=1 $lvl2=1
CC137 Q:12 QN:11 3.00068e-18 $lvl1=1 $lvl2=1
CC138 Q:10 QN:13 1.94346e-18 $lvl1=1 $lvl2=1
CC139 Q:6 QN:14 1.82906e-18 $lvl1=2 $lvl2=1
CC140 Q:10 QN:1 1.81217e-18 $lvl1=1 $lvl2=2
CC141 Q:4 QN:11 1.54288e-18 $lvl1=2 $lvl2=1
CC142 Q:4 QN:10 1.19288e-18 $lvl1=2 $lvl2=1
CC143 Q:5 QN:14 1.14221e-18 $lvl1=2 $lvl2=1
CC144 Q:13 QN:5 8.01251e-19 $lvl1=1 $lvl2=2
CC145 Q:10 QN:4 7.55389e-19 $lvl1=1 $lvl2=2
CC146 Q:13 QN:6 7.52078e-19 $lvl1=1 $lvl2=2
CC147 Q:4 QN:1 7.23264e-19 $lvl1=2 $lvl2=2
CC148 Q:4 QN:12 7.12694e-19 $lvl1=2 $lvl2=1
CC149 Q:12 QN:10 6.57995e-19 $lvl1=1 $lvl2=1
CC150 Q:4 QN:4 6.30366e-19 $lvl1=2 $lvl2=2
CC151 Q:1 QN:10 5.99264e-19 $lvl1=2 $lvl2=1
CC152 Q:5 QN:5 5.68073e-19 $lvl1=2 $lvl2=2
CC153 Q:12 QN:1 5.52541e-19 $lvl1=1 $lvl2=2
CC154 Q:10 QN:10 2.83455e-17 $lvl1=1 $lvl2=1
CC155 Q:13 QN:14 2.62106e-17 $lvl1=1 $lvl2=1
CC156 Q:10 QN:14 7.36231e-18 $lvl1=1 $lvl2=1
CC157 Q:10 QN:11 1.55529e-17 $lvl1=1 $lvl2=1
ReC27 Q:10 Q:11 0.178846 $metal1  $L=0.465 $W=0.325000 $SI_W=0.325 $TYPE=10 $DIR=1 $LLX=6.770000 $LLY=2.985000 $URX=7.095000 $URY=3.450000 $lvl=1
ReC28 Q:11 Q:12 0.119293 $metal1  $L=0.2195 $W=0.230000 $SI_W=0.23 $TYPE=10 $DIR=1 $LLX=6.865000 $LLY=3.449500 $URX=7.095000 $URY=3.669500 $lvl=1
ReC29 Q:10 Q 0.378846 $metal1  $L=0.985 $W=0.325000 $SI_W=0.325 $TYPE=10 $DIR=1 $LLX=6.770000 $LLY=2.000000 $URX=7.095000 $URY=2.985000 $lvl=1
ReC30 Q Q:13 0.465385 $metal1  $L=1.21 $W=0.325000 $SI_W=0.325 $TYPE=10 $DIR=1 $LLX=6.770000 $LLY=0.790000 $URX=7.095000 $URY=2.000000 $lvl=1
ReC31 Q:13 Q:14 0.125000 $metal1  $L=0.325 $W=0.325000 $SI_W=0.325 $TYPE=10 $DIR=1 $LLX=6.770000 $LLY=0.465000 $URX=7.095000 $URY=0.790000 $lvl=1
RfC32 Q:1 Q:3 54.964703 $li  $L=0.73 $W=0.170000 $SI_W=0.17 $TYPE=10 $DIR=1 $LLX=6.895000 $LLY=3.015000 $URX=7.065000 $URY=3.745000 $lvl=2
RfC33 Q:3 Q:4 0.322689 $li  $L=0.03 $W=0.170000 $SI_W=1.19 $TYPE=10 $DIR=1 $LLX=6.895000 $LLY=2.985000 $URX=7.065000 $URY=3.015000 $lvl=2
RfC34 Q:5 Q:6 27.482355 $li  $L=0.365 $W=0.170000 $SI_W=0.17 $TYPE=10 $DIR=1 $LLX=6.895000 $LLY=0.790000 $URX=7.065000 $URY=1.155000 $lvl=2
RfC35 Q:6 Q:8 0.380198 $li  $L=0.015 $W=0.170000 $SI_W=0.505 $TYPE=10 $DIR=1 $LLX=6.895000 $LLY=0.775000 $URX=7.065000 $URY=0.790000 $lvl=2
RfC36 Q:8 Q:9 28.611765 $li  $L=0.38 $W=0.170000 $SI_W=0.17 $TYPE=10 $DIR=1 $LLX=6.895000 $LLY=0.395000 $URX=7.065000 $URY=0.775000 $lvl=2
RhC37 Mmn55:d Q:8 7.500000 $licon_diff  $A=0.0578 $VC=0 $SAVL=0 $SAVC=0 $SI_A=0.0578 $COVER_DIR=0 $LLX=0.000000 $LLY=0.000000 $URX=-0.057800 $URY=-2.000000 $lvl=5
Rh_2_C38 Mmp55:d Q:3 3.750000 $licon_diff  $A=0.1156 $VC=0 $SAVL=0 $SAVC=0 $SI_A=0.1156 $COVER_DIR=0 $LLX=0.000000 $LLY=0.000000 $URX=-0.115600 $URY=-4.000000 $lvl=5
RjC39 Q:4 Q:10 38.000000 $mcon  $A=0.1156 $VC=0 $SAVL=0 $SAVC=0 $SI_A=0.1156 $COVER_DIR=0 $LLX=0.000000 $LLY=0.000000 $URX=-0.115600 $URY=-4.000000 $lvl=6
RjC40 Q:6 Q:13 76.000000 $mcon  $A=0.0578 $VC=0 $SAVL=0 $SAVC=0 $SI_A=0.0578 $COVER_DIR=0 $LLX=0.000000 $LLY=0.000000 $URX=-0.057800 $URY=-2.000000 $lvl=6
*
*|NET n26 3.03013e-16
*|I (Mmp35:d Mmp35 d X 0 2.1195 3.3550) // $llx=2.1195 $lly=3.3550 $urx=2.1195 $ury=3.3550 $lvl=4
*|I (Mmp36:s Mmp36 s X 0 1.8405 3.3550) // $llx=1.8405 $lly=3.3550 $urx=1.8405 $ury=3.3550 $lvl=4
*|S (n26 1.9800 3.5895) // $llx=1.9800 $lly=3.5895 $urx=1.9800 $ury=3.5895 $lvl=2
*|S (n26:3 1.9800 3.2750) // $llx=1.9800 $lly=3.2750 $urx=1.9800 $ury=3.2750 $lvl=2
*|S (n26:4 1.9800 2.9650) // $llx=1.9800 $lly=2.9650 $urx=1.9800 $ury=2.9650 $lvl=2
CO1 Mmp35:d VSS! 1.01501e-18 $lvl=4
CO2 n26:3 VSS! 2.43807e-18 $lvl=2
CO3 n26:4 VSS! 2.64333e-18 $lvl=2
CO4 n26 VSS! 1.52249e-18 $lvl=2
RfO401 n26 n26:3 23.680000 $li  $L=0.3145 $W=0.170000 $SI_W=0.17 $TYPE=10 $DIR=1 $LLX=1.895000 $LLY=3.275000 $URX=2.065000 $URY=3.589500 $lvl=2
RfO402 n26:3 n26:4 23.341177 $li  $L=0.31 $W=0.170000 $SI_W=0.17 $TYPE=10 $DIR=1 $LLX=1.895000 $LLY=2.965000 $URX=2.065000 $URY=3.275000 $lvl=2
Rh_2_O403 Mmp35:d n26:3 15.000000 $licon_diff  $L=0.17 $W=0.17 $A=0.0289 $VC=0 $SAVL=0 $SAVC=0 $SI_A=0.0289 $COVER_DIR=0 $LLX=0.000000 $LLY=0.000000 $URX=0.170000 $URY=0.170000 $lvl=5
RmwO404 Mmp36:s Mmp35:d 0.001000 $diff $W=1000000 $SI_W=1000000 $TYPE=1 $DIR=0
*
*|NET n36 3.02672e-16
*|I (Mmp50:d Mmp50 d X 0 4.7895 3.3550) // $llx=4.7895 $lly=3.3550 $urx=4.7895 $ury=3.3550 $lvl=4
*|I (Mmp51:s Mmp51 s X 0 4.5105 3.3550) // $llx=4.5105 $lly=3.3550 $urx=4.5105 $ury=3.3550 $lvl=4
*|S (n36 4.6500 3.5895) // $llx=4.6500 $lly=3.5895 $urx=4.6500 $ury=3.5895 $lvl=2
*|S (n36:3 4.6500 3.2750) // $llx=4.6500 $lly=3.2750 $urx=4.6500 $ury=3.2750 $lvl=2
*|S (n36:4 4.6500 2.9650) // $llx=4.6500 $lly=2.9650 $urx=4.6500 $ury=2.9650 $lvl=2
CO5 Mmp50:d VSS! 9.04266e-19 $lvl=4
CO6 n36:3 VSS! 2.71322e-18 $lvl=2
CO7 n36:4 VSS! 2.4478e-18 $lvl=2
CO8 n36 VSS! 1.40987e-18 $lvl=2
RfO405 n36 n36:3 23.680000 $li  $L=0.3145 $W=0.170000 $SI_W=0.17 $TYPE=10 $DIR=1 $LLX=4.565000 $LLY=3.275000 $URX=4.735000 $URY=3.589500 $lvl=2
RfO406 n36:3 n36:4 23.341177 $li  $L=0.31 $W=0.170000 $SI_W=0.17 $TYPE=10 $DIR=1 $LLX=4.565000 $LLY=2.965000 $URX=4.735000 $URY=3.275000 $lvl=2
Rh_2_O407 Mmp50:d n36:3 15.000000 $licon_diff  $L=0.17 $W=0.17 $A=0.0289 $VC=0 $SAVL=0 $SAVC=0 $SI_A=0.0289 $COVER_DIR=0 $LLX=0.000000 $LLY=0.000000 $URX=0.170000 $URY=0.170000 $lvl=5
RmwO408 Mmp51:s Mmp50:d 0.001000 $diff $W=1000000 $SI_W=1000000 $TYPE=1 $DIR=0
*
*|NET n35 2.62087e-16
*|I (Mmn50:d Mmn50 d X 0 4.7895 0.6075) // $llx=4.7895 $lly=0.6075 $urx=4.7895 $ury=0.6075 $lvl=4
*|I (Mmn51:s Mmn51 s X 0 4.5105 0.6075) // $llx=4.5105 $lly=0.6075 $urx=4.5105 $ury=0.6075 $lvl=4
*|S (n35 4.6500 0.8195) // $llx=4.6500 $lly=0.8195 $urx=4.6500 $ury=0.8195 $lvl=2
*|S (n35:3 4.6500 0.6050) // $llx=4.6500 $lly=0.6050 $urx=4.6500 $ury=0.6050 $lvl=2
*|S (n35:4 4.6500 0.3950) // $llx=4.6500 $lly=0.3950 $urx=4.6500 $ury=0.3950 $lvl=2
CO9 Mmn50:d VSS! 9.6188e-19 $lvl=4
CO10 n35:3 VSS! 7.18627e-18 $lvl=2
CO11 n35:4 VSS! 1.19361e-18 $lvl=2
CO12 n35 VSS! 5.19606e-18 $lvl=2
CO13 n35:3 VSS!:7 1.27611e-18 $lvl1=2 $lvl2=2
CO14 n35 VSS!:33 6.93135e-19 $lvl1=2 $lvl2=1
CO15 n35:3 VSS!:8 6.75461e-19 $lvl1=2 $lvl2=4
CO16 Mmn50:d VSS!:21 3.40015e-19 $lvl1=4 $lvl2=2
CO17 n35:3 VSS!:21 2.21074e-17 $lvl1=2 $lvl2=2
CO18 n35:3 VSS!:10 1.04859e-17 $lvl1=2 $lvl2=2
CO19 Mmn50:d VSS!:10 1.82361e-18 $lvl1=4 $lvl2=2
CO20 n35:4 VSS!:21 3.91059e-18 $lvl1=2 $lvl2=2
CO21 n35 VSS!:21 5.6047e-18 $lvl1=2 $lvl2=2
CO22 n35:3 VSS!:33 3.29421e-18 $lvl1=2 $lvl2=1
CO23 n35:4 VSS!:7 2.02712e-18 $lvl1=2 $lvl2=2
CO24 n35:4 VSS!:10 1.1322e-17 $lvl1=2 $lvl2=2
CO25 n35:4 VSS!:33 2.58256e-18 $lvl1=2 $lvl2=1
RfO409 n35 n35:3 16.150589 $li  $L=0.2145 $W=0.170000 $SI_W=0.17 $TYPE=10 $DIR=1 $LLX=4.565000 $LLY=0.605000 $URX=4.735000 $URY=0.819500 $lvl=2
RfO410 n35:3 n35:4 15.811765 $li  $L=0.21 $W=0.170000 $SI_W=0.17 $TYPE=10 $DIR=1 $LLX=4.565000 $LLY=0.395000 $URX=4.735000 $URY=0.605000 $lvl=2
RhO411 Mmn50:d n35:3 15.000000 $licon_diff  $L=0.17 $W=0.17 $A=0.0289 $VC=0 $SAVL=0 $SAVC=0 $SI_A=0.0289 $COVER_DIR=0 $LLX=0.000000 $LLY=0.000000 $URX=0.170000 $URY=0.170000 $lvl=5
RmwO412 Mmn51:s Mmn50:d 0.001000 $diff $W=1000000 $SI_W=1000000 $TYPE=1 $DIR=0
*
*|NET CKb 2.86496e-15
*|I (Mmp40:g Mmp40 g X 0 4.0050 3.3550) // $llx=4.0050 $lly=3.3550 $urx=4.0050 $ury=3.3550 $lvl=3
*|I (Mmp21:g Mmp21 g X 0 2.6250 3.3550) // $llx=2.6250 $lly=3.3550 $urx=2.6250 $ury=3.3550 $lvl=3
*|I (Mmp20:d Mmp20 d X 0 0.3995 3.3550) // $llx=0.3995 $lly=3.3550 $urx=0.3995 $ury=3.3550 $lvl=4
*|I (Mmp36:g Mmp36 g X 0 1.7650 3.3550) // $llx=1.7650 $lly=3.3550 $urx=1.7650 $ury=3.3550 $lvl=3
*|I (Mmn26:g Mmn26 g X 0 1.3350 0.6075) // $llx=1.3350 $lly=0.6075 $urx=1.3350 $ury=0.6075 $lvl=3
*|I (Mmn21:g Mmn21 g X 0 2.6250 0.6075) // $llx=2.6250 $lly=0.6075 $urx=2.6250 $ury=0.6075 $lvl=3
*|I (Mmn20:d Mmn20 d X 0 0.3995 0.6075) // $llx=0.3995 $lly=0.6075 $urx=0.3995 $ury=0.6075 $lvl=4
*|I (Mmn51:g Mmn51 g X 0 4.4350 0.6075) // $llx=4.4350 $lly=0.6075 $urx=4.4350 $ury=0.6075 $lvl=3
*|S (CKb 1.3350 0.6075) // $llx=1.3350 $lly=0.6075 $urx=1.3350 $ury=0.6075 $lvl=3
*|S (CKb:22 1.7650 3.8950) // $llx=1.7650 $lly=3.8950 $urx=1.7650 $ury=3.8950 $lvl=3
*|S (CKb:23 1.7650 1.9700) // $llx=1.7650 $lly=1.9700 $urx=1.7650 $ury=1.9700 $lvl=3
*|S (CKb:24 1.5500 1.9700) // $llx=1.5500 $lly=1.9700 $urx=1.5500 $ury=1.9700 $lvl=3
*|S (CKb:25 1.3350 1.9700) // $llx=1.3350 $lly=1.9700 $urx=1.3350 $ury=1.9700 $lvl=3
*|S (CKb:26 1.3350 0.2450) // $llx=1.3350 $lly=0.2450 $urx=1.3350 $ury=0.2450 $lvl=3
*|S (CKb:27 2.6250 3.8950) // $llx=2.6250 $lly=3.8950 $urx=2.6250 $ury=3.8950 $lvl=3
*|S (CKb:28 2.6400 2.7550) // $llx=2.6400 $lly=2.7550 $urx=2.6400 $ury=2.7550 $lvl=3
*|S (CKb:29 2.6400 2.6800) // $llx=2.6400 $lly=2.6800 $urx=2.6400 $ury=2.6800 $lvl=3
*|S (CKb:30 2.6400 1.9700) // $llx=2.6400 $lly=1.9700 $urx=2.6400 $ury=1.9700 $lvl=3
*|S (CKb:31 2.6550 1.8045) // $llx=2.6550 $lly=1.8045 $urx=2.6550 $ury=1.8045 $lvl=3
*|S (CKb:32 2.6400 1.1850) // $llx=2.6400 $lly=1.1850 $urx=2.6400 $ury=1.1850 $lvl=3
*|S (CKb:33 2.6400 1.1100) // $llx=2.6400 $lly=1.1100 $urx=2.6400 $ury=1.1100 $lvl=3
*|S (CKb:34 2.7150 1.9700) // $llx=2.7150 $lly=1.9700 $urx=2.7150 $ury=1.9700 $lvl=3
*|S (CKb:35 2.8495 1.9700) // $llx=2.8495 $lly=1.9700 $urx=2.8495 $ury=1.9700 $lvl=3
*|S (CKb:36 2.6250 0.2450) // $llx=2.6250 $lly=0.2450 $urx=2.6250 $ury=0.2450 $lvl=3
*|S (CKb:37 4.0050 3.8950) // $llx=4.0050 $lly=3.8950 $urx=4.0050 $ury=3.8950 $lvl=3
*|S (CKb:38 4.0050 1.9700) // $llx=4.0050 $lly=1.9700 $urx=4.0050 $ury=1.9700 $lvl=3
*|S (CKb:39 4.2200 1.9700) // $llx=4.2200 $lly=1.9700 $urx=4.2200 $ury=1.9700 $lvl=3
*|S (CKb:40 4.4350 1.9700) // $llx=4.4350 $lly=1.9700 $urx=4.4350 $ury=1.9700 $lvl=3
*|S (CKb:41 4.4350 0.2450) // $llx=4.4350 $lly=0.2450 $urx=4.4350 $ury=0.2450 $lvl=3
*|S (CKb:42 0.2600 3.7450) // $llx=0.2600 $lly=3.7450 $urx=0.2600 $ury=3.7450 $lvl=2
*|S (CKb:44 0.2600 3.3550) // $llx=0.2600 $lly=3.3550 $urx=0.2600 $ury=3.3550 $lvl=2
*|S (CKb:45 0.2600 3.1300) // $llx=0.2600 $lly=3.1300 $urx=0.2600 $ury=3.1300 $lvl=2
*|S (CKb:46 0.2600 0.8200) // $llx=0.2600 $lly=0.8200 $urx=0.2600 $ury=0.8200 $lvl=2
*|S (CKb:47 0.2600 0.6050) // $llx=0.2600 $lly=0.6050 $urx=0.2600 $ury=0.6050 $lvl=2
*|S (CKb:50 0.2600 0.3950) // $llx=0.2600 $lly=0.3950 $urx=0.2600 $ury=0.3950 $lvl=2
*|S (CKb:51 4.3850 1.9700) // $llx=4.3850 $lly=1.9700 $urx=4.3850 $ury=1.9700 $lvl=2
*|S (CKb:52 4.2200 1.9700) // $llx=4.2200 $lly=1.9700 $urx=4.2200 $ury=1.9700 $lvl=2
*|S (CKb:53 2.7150 1.9700) // $llx=2.7150 $lly=1.9700 $urx=2.7150 $ury=1.9700 $lvl=2
*|S (CKb:54 1.5500 1.9700) // $llx=1.5500 $lly=1.9700 $urx=1.5500 $ury=1.9700 $lvl=2
*|S (CKb:55 0.2600 1.9700) // $llx=0.2600 $lly=1.9700 $urx=0.2600 $ury=1.9700 $lvl=2
*|S (CKb:56 0.0950 1.9700) // $llx=0.0950 $lly=1.9700 $urx=0.0950 $ury=1.9700 $lvl=2
*|S (CKb:57 0.2600 3.2750) // $llx=0.2600 $lly=3.2750 $urx=0.2600 $ury=3.2750 $lvl=1
*|S (CKb:58 0.2600 3.1300) // $llx=0.2600 $lly=3.1300 $urx=0.2600 $ury=3.1300 $lvl=1
*|S (CKb:59 0.2600 1.9700) // $llx=0.2600 $lly=1.9700 $urx=0.2600 $ury=1.9700 $lvl=1
*|S (CKb:60 0.2600 0.6050) // $llx=0.2600 $lly=0.6050 $urx=0.2600 $ury=0.6050 $lvl=1
*|S (CKb:61 0.2600 0.4600) // $llx=0.2600 $lly=0.4600 $urx=0.2600 $ury=0.4600 $lvl=1
CG1 Mmn20:d VSS! 1.70451e-18 $lvl=4
CG2 Mmn21:g VSS! 2.70017e-18 $lvl=3
CG3 Mmp20:d VSS! 2.48664e-18 $lvl=4
CG4 CKb:60 VSS! 7.50471e-18 $lvl=1
CG5 CKb:59 VSS! 1.10573e-17 $lvl=1
CG6 CKb:57 VSS! 6.70207e-18 $lvl=1
CG7 CKb:37 VSS! 2.39212e-18 $lvl=3
CG8 CKb:41 VSS! 4.22646e-18 $lvl=3
CG9 CKb:27 VSS! 1.83727e-18 $lvl=3
CG10 CKb:22 VSS! 1.71681e-18 $lvl=3
CG11 CKb:54 VSS! 1.16983e-17 $lvl=2
CG12 CKb:53 VSS! 1.0555e-17 $lvl=2
CG13 CKb:51 VSS! 1.39914e-17 $lvl=2
CG14 CKb:56 VSS! 1.36566e-17 $lvl=2
CG15 CKb:46 VSS! 1.07409e-17 $lvl=2
CG16 CKb:50 VSS! 1.12306e-18 $lvl=2
CG17 CKb:42 VSS! 3.75799e-18 $lvl=2
CG18 CKb:47 VSS! 1.89962e-18 $lvl=2
CG19 CKb:55 VSS! 3.55412e-18 $lvl=2
CG20 CKb:45 VSS! 2.35996e-18 $lvl=2
CG21 CKb:24 VSS! 1.71864e-17 $lvl=3
CG22 CKb:34 VSS! 1.77863e-17 $lvl=3
CG23 CKb:39 VSS! 2.27052e-17 $lvl=3
CG24 CKb VSS! 2.79211e-18 $lvl=3
CG25 CKb:41 n35 7.84409e-19 $lvl1=3 $lvl2=2
CG26 CKb:22 n26 1.33101e-18 $lvl1=3 $lvl2=2
CG27 CKb:22 n26:4 1.03638e-18 $lvl1=3 $lvl2=2
CG28 CKb:41 n35:3 6.47742e-17 $lvl1=3 $lvl2=2
CG29 CKb:22 n26:3 6.87876e-17 $lvl1=3 $lvl2=2
CG30 CKb n21:4 5.94805e-19 $lvl1=3 $lvl2=2
CG31 CKb n21 5.80235e-19 $lvl1=3 $lvl2=2
CG32 CKb:60 n21:3 3.52264e-19 $lvl1=1 $lvl2=2
CG33 CKb:46 n21:3 2.06813e-19 $lvl1=2 $lvl2=2
CG34 CKb:47 n21:3 1.66629e-19 $lvl1=2 $lvl2=2
CG35 CKb:60 n21 1.61642e-19 $lvl1=1 $lvl2=2
CG36 CKb n21:3 6.41298e-17 $lvl1=3 $lvl2=2
CG37 CKb:39 qbint:23 4.87016e-18 $lvl1=3 $lvl2=3
CG38 CKb:51 qbint:51 4.49312e-18 $lvl1=2 $lvl2=2
CG39 CKb:39 n30:28 1.73376e-18 $lvl1=3 $lvl2=1
CG40 CKb:51 n30:28 1.49222e-17 $lvl1=2 $lvl2=1
CG41 CKb:39 n30:25 1.07891e-17 $lvl1=3 $lvl2=2
CG42 CKb:41 n30:17 6.37885e-17 $lvl1=3 $lvl2=2
CG43 CKb:51 n30:25 2.74995e-17 $lvl1=2 $lvl2=2
CG44 CKb:37 n30:13 1.29767e-16 $lvl1=3 $lvl2=2
CG45 CKb:51 n30:24 1.18403e-17 $lvl1=2 $lvl2=2
CG46 CKb:54 mout:24 9.60732e-18 $lvl1=2 $lvl2=2
CG47 CKb:53 mout:9 8.75561e-18 $lvl1=2 $lvl2=3
CG48 CKb:34 mout:9 6.34815e-18 $lvl1=3 $lvl2=3
CG49 CKb:54 mout:9 5.4641e-18 $lvl1=2 $lvl2=3
CG50 CKb:39 mout:21 3.99e-18 $lvl1=3 $lvl2=2
CG51 CKb:53 mout:27 3.16794e-18 $lvl1=2 $lvl2=1
CG52 CKb:54 mout:23 2.96773e-18 $lvl1=2 $lvl2=2
CG53 CKb:53 mout:24 2.47726e-18 $lvl1=2 $lvl2=2
CG54 CKb:24 mout:9 2.44243e-18 $lvl1=3 $lvl2=3
CG55 CKb:34 mout:21 1.79699e-18 $lvl1=3 $lvl2=2
CG56 CKb:51 mout:26 1.17627e-18 $lvl1=2 $lvl2=1
CG57 CKb:53 mout:23 4.79334e-17 $lvl1=2 $lvl2=2
CG58 CKb:51 mout:22 1.32595e-17 $lvl1=2 $lvl2=2
CG59 CKb:34 mout:23 1.06852e-17 $lvl1=3 $lvl2=2
CG60 CKb:51 mout:21 3.25139e-17 $lvl1=2 $lvl2=2
CG61 CKb:51 mout:27 1.45736e-17 $lvl1=2 $lvl2=1
CG62 CKb:53 mout:21 3.28022e-17 $lvl1=2 $lvl2=2
CG63 CKb:37 mout:12 1.27074e-16 $lvl1=3 $lvl2=2
CG64 CKb:24 CKbb:17 6.9625e-18 $lvl1=3 $lvl2=3
CG65 CKb:34 CKbb:43 6.31455e-18 $lvl1=3 $lvl2=2
CG66 CKb:54 CKbb:40 5.90022e-18 $lvl1=2 $lvl2=2
CG67 CKb:54 CKbb:17 5.53342e-18 $lvl1=2 $lvl2=3
CG68 CKb:24 CKbb:20 4.63979e-18 $lvl1=3 $lvl2=3
CG69 CKb:24 CKbb:44 4.58025e-18 $lvl1=3 $lvl2=2
CG70 CKb:39 CKbb:23 4.27412e-18 $lvl1=3 $lvl2=3
CG71 CKb:54 CKbb:43 3.72768e-18 $lvl1=2 $lvl2=2
CG72 CKb:54 CKbb:20 3.68674e-18 $lvl1=2 $lvl2=3
CG73 CKb:51 CKbb:41 3.24033e-18 $lvl1=2 $lvl2=2
CG74 CKb:27 CKbb:43 3.04322e-18 $lvl1=3 $lvl2=2
CG75 CKb:39 CKbb:26 3.0172e-18 $lvl1=3 $lvl2=3
CG76 CKb:22 CKbb:44 3.00438e-18 $lvl1=3 $lvl2=2
CG77 CKb:53 CKbb:44 2.88088e-18 $lvl1=2 $lvl2=2
CG78 CKb:37 CKbb:26 2.54803e-18 $lvl1=3 $lvl2=3
CG79 CKb:51 CKbb:23 2.40004e-18 $lvl1=2 $lvl2=3
CG80 CKb:51 CKbb:36 2.31098e-18 $lvl1=2 $lvl2=2
CG81 CKb:34 CKbb:38 2.26103e-18 $lvl1=3 $lvl2=2
CG82 CKb:24 CKbb:40 2.25214e-18 $lvl1=3 $lvl2=2
CG83 CKb:37 CKbb:41 2.20159e-18 $lvl1=3 $lvl2=2
CG84 Mmn21:g CKbb:38 2.14487e-18 $lvl1=3 $lvl2=2
CG85 CKb CKbb:20 2.0455e-18 $lvl1=3 $lvl2=3
CG86 CKb:41 CKbb:23 2.01299e-18 $lvl1=3 $lvl2=3
CG87 CKb:53 CKbb:38 1.88131e-18 $lvl1=2 $lvl2=2
CG88 CKb:39 CKbb:41 1.82844e-18 $lvl1=3 $lvl2=2
CG89 CKb:22 CKbb:17 1.56884e-18 $lvl1=3 $lvl2=3
CG90 CKb:39 CKbb:36 1.46666e-18 $lvl1=3 $lvl2=2
CG91 CKb:56 CKbb:17 1.41856e-18 $lvl1=2 $lvl2=3
CG92 CKb:51 CKbb:43 1.33943e-18 $lvl1=2 $lvl2=2
CG93 CKb:54 CKbb:49 1.32868e-18 $lvl1=2 $lvl2=1
CG94 CKb:56 CKbb:44 1.08995e-18 $lvl1=2 $lvl2=2
CG95 CKb:34 CKbb:48 1.05209e-18 $lvl1=3 $lvl2=1
CG96 CKb:54 CKbb:48 1.03284e-18 $lvl1=2 $lvl2=1
CG97 CKb:53 CKbb:40 8.04359e-19 $lvl1=2 $lvl2=2
CG98 CKb:51 CKbb:26 8.0116e-19 $lvl1=2 $lvl2=3
CG99 CKb:22 CKbb:43 7.67943e-19 $lvl1=3 $lvl2=2
CG100 CKb:24 CKbb:43 6.48147e-19 $lvl1=3 $lvl2=2
CG101 CKb:34 CKbb:30 6.09733e-19 $lvl1=3 $lvl2=2
CG102 CKb:34 CKbb:44 6.00255e-19 $lvl1=3 $lvl2=2
CG103 Mmn21:g CKbb:40 5.60306e-19 $lvl1=3 $lvl2=2
CG104 CKb:59 CKbb:48 5.39707e-19 $lvl1=1 $lvl2=1
CG105 Mmn21:g CKbb:35 4.97958e-19 $lvl1=3 $lvl2=2
CG106 CKb:53 CKbb:36 4.85776e-19 $lvl1=2 $lvl2=2
CG107 CKb:59 CKbb:50 4.5494e-19 $lvl1=1 $lvl2=1
CG108 CKb:37 CKbb:43 4.46862e-19 $lvl1=3 $lvl2=2
CG109 CKb:53 CKbb:30 4.45854e-19 $lvl1=2 $lvl2=2
CG110 CKb:53 CKbb:23 4.44343e-19 $lvl1=2 $lvl2=3
CG111 CKb CKbb:40 4.32874e-19 $lvl1=3 $lvl2=2
CG112 CKb:53 CKbb:20 4.11891e-19 $lvl1=2 $lvl2=3
CG113 Mmn21:g CKbb:20 4.01455e-19 $lvl1=3 $lvl2=3
CG114 Mmn21:g CKbb:34 6.77693e-17 $lvl1=3 $lvl2=2
CG115 CKb:53 CKbb:48 1.53747e-17 $lvl1=2 $lvl2=1
CG116 CKb:54 CKbb:44 2.01898e-17 $lvl1=2 $lvl2=2
CG117 CKb:27 CKbb:30 1.30456e-16 $lvl1=3 $lvl2=2
CG118 CKb:53 CKbb:49 1.29551e-17 $lvl1=2 $lvl2=1
CG119 CKb:53 CKbb:43 1.62405e-17 $lvl1=2 $lvl2=2
CG120 CKb:51 n20:10 6.2643e-18 $lvl1=2 $lvl2=3
CG121 CKb:53 n20:22 5.47881e-18 $lvl1=2 $lvl2=2
CG122 CKb:53 n20:10 5.30069e-18 $lvl1=2 $lvl2=3
CG123 CKb:51 n20:23 4.4592e-18 $lvl1=2 $lvl2=2
CG124 CKb:53 n20:24 4.01113e-18 $lvl1=2 $lvl2=1
CG125 CKb:51 n20:22 2.73595e-18 $lvl1=2 $lvl2=2
CG126 CKb:60 n20:31 2.36404e-18 $lvl1=1 $lvl2=1
CG127 CKb:59 n20:28 2.23119e-18 $lvl1=1 $lvl2=1
CG128 CKb:53 n20:28 2.10188e-18 $lvl1=2 $lvl2=1
CG129 CKb:57 n20:28 2.07714e-18 $lvl1=1 $lvl2=1
CG130 CKb:53 n20:23 2.00979e-18 $lvl1=2 $lvl2=2
CG131 CKb:59 n20:31 1.91983e-18 $lvl1=1 $lvl2=1
CG132 CKb:34 n20:21 1.82414e-18 $lvl1=3 $lvl2=2
CG133 CKb:51 n20:24 1.5641e-18 $lvl1=2 $lvl2=1
CG134 CKb:34 n20:10 1.50661e-18 $lvl1=3 $lvl2=3
CG135 CKb:39 n20:10 1.37286e-18 $lvl1=3 $lvl2=3
CG136 CKb:53 n20:31 1.35633e-18 $lvl1=2 $lvl2=1
CG137 CKb:51 n20:21 1.28168e-18 $lvl1=2 $lvl2=2
CG138 CKb:24 n20:28 1.23556e-18 $lvl1=3 $lvl2=1
CG139 CKb:24 n20:31 1.20858e-18 $lvl1=3 $lvl2=1
CG140 CKb:57 n20:31 7.90665e-19 $lvl1=1 $lvl2=1
CG141 CKb:56 n20:31 6.49763e-19 $lvl1=2 $lvl2=1
CG142 CKb:54 n20:28 1.99917e-17 $lvl1=2 $lvl2=1
CG143 CKb:22 n20:12 1.3154e-16 $lvl1=3 $lvl2=2
CG144 CKb n20:16 6.52151e-17 $lvl1=3 $lvl2=2
CG145 CKb:53 n20:21 2.08998e-17 $lvl1=2 $lvl2=2
CG146 CKb:54 n20:31 1.33275e-17 $lvl1=2 $lvl2=1
CG147 CKb:47 VSS!:29 7.98778e-18 $lvl1=2 $lvl2=2
CG148 CKb:50 VSS!:13 7.26889e-18 $lvl1=2 $lvl2=2
CG149 CKb VSS!:12 7.23391e-18 $lvl1=3 $lvl2=2
CG150 Mmn21:g VSS!:11 7.01145e-18 $lvl1=3 $lvl2=2
CG151 CKb:41 VSS!:10 6.9946e-18 $lvl1=3 $lvl2=2
CG152 CKb:50 VSS!:12 6.24403e-18 $lvl1=2 $lvl2=2
CG153 CKb:46 VSS!:12 6.23442e-18 $lvl1=2 $lvl2=2
CG154 CKb:60 VSS!:29 5.26167e-18 $lvl1=1 $lvl2=2
CG155 CKb:50 VSS!:29 4.92975e-18 $lvl1=2 $lvl2=2
CG156 CKb:46 VSS!:13 4.09223e-18 $lvl1=2 $lvl2=2
CG157 CKb:59 VSS!:33 3.44916e-18 $lvl1=1 $lvl2=1
CG158 CKb:60 VSS!:13 2.88197e-18 $lvl1=1 $lvl2=2
CG159 CKb:46 VSS!:8 2.61631e-18 $lvl1=2 $lvl2=4
CG160 CKb:46 VSS!:34 2.25258e-18 $lvl1=2 $lvl2=1
CG161 Mmn20:d VSS!:12 2.23448e-18 $lvl1=4 $lvl2=2
CG162 CKb:59 VSS!:34 2.02512e-18 $lvl1=1 $lvl2=1
CG163 CKb:47 VSS!:13 1.85742e-18 $lvl1=2 $lvl2=2
CG164 CKb:60 VSS!:12 1.75135e-18 $lvl1=1 $lvl2=2
CG165 CKb:50 VSS!:34 1.55623e-18 $lvl1=2 $lvl2=1
CG166 CKb:47 VSS!:12 1.48739e-18 $lvl1=2 $lvl2=2
CG167 CKb:47 VSS!:34 1.40407e-18 $lvl1=2 $lvl2=1
CG168 Mmn21:g VSS!:10 1.20882e-18 $lvl1=3 $lvl2=2
CG169 CKb:60 VSS!:7 1.13366e-18 $lvl1=1 $lvl2=2
CG170 CKb:47 VSS!:7 1.08043e-18 $lvl1=2 $lvl2=2
CG171 CKb:50 VSS!:7 1.06167e-18 $lvl1=2 $lvl2=2
CG172 CKb:47 VSS!:33 1.05456e-18 $lvl1=2 $lvl2=1
CG173 CKb:41 VSS!:21 1.0007e-18 $lvl1=3 $lvl2=2
CG174 CKb:50 VSS!:33 8.96281e-19 $lvl1=2 $lvl2=1
CG175 CKb VSS!:29 8.4943e-19 $lvl1=3 $lvl2=2
CG176 Mmn21:g VSS!:24 8.27915e-19 $lvl1=3 $lvl2=2
CG177 Mmn21:g VSS!:27 6.47566e-17 $lvl1=3 $lvl2=2
CG178 CKb:46 VSS!:29 2.12515e-17 $lvl1=2 $lvl2=2
CG179 CKb:60 VSS!:34 2.49131e-17 $lvl1=1 $lvl2=1
CG180 CKb:60 VSS!:33 2.56171e-17 $lvl1=1 $lvl2=1
ReG160 CKb:57 CKb:58 0.078804 $metal1  $L=0.145 $W=0.230000 $SI_W=0.23 $TYPE=10 $DIR=1 $LLX=0.145000 $LLY=3.130000 $URX=0.375000 $URY=3.275000 $lvl=1
ReG161 CKb:58 CKb:59 0.630435 $metal1  $L=1.16 $W=0.230000 $SI_W=0.23 $TYPE=10 $DIR=1 $LLX=0.145000 $LLY=1.970000 $URX=0.375000 $URY=3.130000 $lvl=1
ReG162 CKb:59 CKb:60 0.741848 $metal1  $L=1.365 $W=0.230000 $SI_W=0.23 $TYPE=10 $DIR=1 $LLX=0.145000 $LLY=0.605000 $URX=0.375000 $URY=1.970000 $lvl=1
ReG163 CKb:60 CKb:61 0.078804 $metal1  $L=0.145 $W=0.230000 $SI_W=0.23 $TYPE=10 $DIR=1 $LLX=0.145000 $LLY=0.460000 $URX=0.375000 $URY=0.605000 $lvl=1
RfG164 CKb:42 CKb:44 29.364706 $li  $L=0.39 $W=0.170000 $SI_W=0.17 $TYPE=10 $DIR=1 $LLX=0.175000 $LLY=3.355000 $URX=0.345000 $URY=3.745000 $lvl=2
RfG165 CKb:44 CKb:45 16.941175 $li  $L=0.225 $W=0.170000 $SI_W=0.17 $TYPE=10 $DIR=1 $LLX=0.175000 $LLY=3.130000 $URX=0.345000 $URY=3.355000 $lvl=2
RfG166 CKb:46 CKb:47 16.188236 $li  $L=0.215 $W=0.170000 $SI_W=0.17 $TYPE=10 $DIR=1 $LLX=0.175000 $LLY=0.605000 $URX=0.345000 $URY=0.820000 $lvl=2
RfG167 CKb:47 CKb:50 15.811765 $li  $L=0.21 $W=0.170000 $SI_W=0.17 $TYPE=10 $DIR=1 $LLX=0.175000 $LLY=0.395000 $URX=0.345000 $URY=0.605000 $lvl=2
RfG168 CKb:51 CKb:52 12.423529 $li  $L=0.165 $W=0.170000 $SI_W=0.17 $TYPE=10 $DIR=0 $LLX=4.220000 $LLY=1.885000 $URX=4.385000 $URY=2.055000 $lvl=2