*
*|DSPF 1.5
*
*|DATE "Wed Jan  8 21:58:47 2025"
*|VENDOR "Cadence Design Systems"
*|PROGRAM "Cadence Quantus Extraction"
*|VERSION "22.1.0-p089 Linux 64 bit - (Thu Jan 19 11:47:08 PST 2023)"
*|DESIGN DFFX4_HS
*|DIVIDER /
*|DELIMITER :
*|DeviceFingerDelim "@"
*|BUSBIT []
*|GLOBAL_TEMPERATURE 25
*|OPERATING_TEMPERATURE 25

** *VIA_COVERAGE_CODES
** *index FF FS FP FU SF SS SP SU PF PS PP PU UF US UP UU X_by_Y
** * "FF" stands for Full landing and Full coverage
** *0 0 0 0 0 0 0 0 0 0 0 0 0 0 0 0 0
** *1 0 0 0 0 0 0 0 0 0 0 0 0 0 0 0 1 1x1
** *2 0 0 0 0 0 0 0 0 0 0 0 0 0 0 1 0 1x1
** *3 0 0 0 0 0 0 0 0 0 0 0 0 0 1 0 0 1x1
** *4 0 0 0 0 0 0 0 0 0 0 0 0 1 0 0 0 1x1
** *5 0 0 0 0 0 0 0 0 0 0 0 1 0 0 0 0 1x1
** *6 0 0 0 0 0 0 0 0 0 0 1 0 0 0 0 0 1x1
** *7 0 0 0 0 0 0 0 0 0 1 0 0 0 0 0 0 1x1
** *8 0 0 0 0 0 0 0 0 1 0 0 0 0 0 0 0 1x1
** *9 0 0 0 0 0 0 0 1 0 0 0 0 0 0 0 0 1x1
** *10 0 0 0 0 0 0 1 0 0 0 0 0 0 0 0 0 1x1
** *11 0 0 0 0 0 1 0 0 0 0 0 0 0 0 0 0 1x1
** *12 0 0 0 0 1 0 0 0 0 0 0 0 0 0 0 0 1x1
** *13 0 0 0 1 0 0 0 0 0 0 0 0 0 0 0 0 1x1
** *14 0 0 1 0 0 0 0 0 0 0 0 0 0 0 0 0 1x1
** *15 0 1 0 0 0 0 0 0 0 0 0 0 0 0 0 0 1x1
** *16 1 0 0 0 0 0 0 0 0 0 0 0 0 0 0 0 1x1

** *RESISTOR_TYPES
** *1 SHORTING_ELEMENT
** *2 PRES_NG
** *3 PRES_PG
** *4 PRES_NF
** *5 PRES_PF
** *6 TCN_NDIFF
** *7 TCN_PDIFF
** *8 TCN_NFIELD
** *9 TCN_PFIELD
** *10 QUALITY_EXTRACTED
** *11 GCNLAND
** *12 TCNLAND
** *13 DUMMY
** *14 RSD
** *15 BRIDGE

** *RESISTOR_CURRENT_DIRECTION
** *0 HORIZONTAL
** *1 VERTICAL
** *2 45 DEGREE

** QRC_TECH_DIR /vols/wfo_devel/projects/reference_SKY130/tech/sky130_release_0.0.4/quantus/extraction/typical 
** HIERARCHICAL_SPLIT_PINS_DELIMITER '%'
** caps2d version: 10
*
.SUBCKT  DFFX4_HS CK D Q QN
*
*Net Section
*
*|GROUND_NET VSS!
*
*LAYER_MAP
*0 none
*1 metal1
*2 li
*3 poly
*4 diff
*5 licon_diff
*6 mcon
*7 licon
*8 FOX

*|NET CK 8.52452e-16
*|P (CK X 0 0.9450 2.6000) // $llx=0.9450 $lly=2.6000 $urx=0.9450 $ury=2.6000 $lvl=1
*|I (Mmp20:g Mmp20 g X 0 0.4750 3.3550) // $llx=0.4750 $lly=3.3550 $urx=0.4750 $ury=3.3550 $lvl=3
*|I (Mmn20:g Mmn20 g X 0 0.4750 0.6075) // $llx=0.4750 $lly=0.6075 $urx=0.4750 $ury=0.6075 $lvl=3
*|S (CK:8 0.4750 3.8950) // $llx=0.4750 $lly=3.8950 $urx=0.4750 $ury=3.8950 $lvl=3
*|S (CK:9 0.4750 2.4550) // $llx=0.4750 $lly=2.4550 $urx=0.4750 $ury=2.4550 $lvl=3
*|S (CK:10 0.4750 2.2900) // $llx=0.4750 $lly=2.2900 $urx=0.4750 $ury=2.2900 $lvl=3
*|S (CK:11 0.4750 0.2450) // $llx=0.4750 $lly=0.2450 $urx=0.4750 $ury=0.2450 $lvl=3
*|S (CK:12 1.0700 2.4550) // $llx=1.0700 $lly=2.4550 $urx=1.0700 $ury=2.4550 $lvl=2
*|S (CK:13 0.9050 2.4550) // $llx=0.9050 $lly=2.4550 $urx=0.9050 $ury=2.4550 $lvl=2
*|S (CK:14 0.4750 2.4550) // $llx=0.4750 $lly=2.4550 $urx=0.4750 $ury=2.4550 $lvl=2
*|S (CK:15 0.3100 2.4550) // $llx=0.3100 $lly=2.4550 $urx=0.3100 $ury=2.4550 $lvl=2
*|S (CK:16 0.9200 3.2350) // $llx=0.9200 $lly=3.2350 $urx=0.9200 $ury=3.2350 $lvl=1
*|S (CK:17 0.9050 2.4550) // $llx=0.9050 $lly=2.4550 $urx=0.9050 $ury=2.4550 $lvl=1
*|S (CK:18 0.9200 1.9950) // $llx=0.9200 $lly=1.9950 $urx=0.9200 $ury=1.9950 $lvl=1
CA1 Mmn20:g VSS! 2.5051e-18 $lvl=3
CA2 CK:16 VSS! 8.7592e-18 $lvl=1
CA3 CK:18 VSS! 7.14164e-18 $lvl=1
CA4 CK:8 VSS! 2.49319e-18 $lvl=3
CA5 CK:15 VSS! 3.87184e-18 $lvl=2
CA6 CK:13 VSS! 3.77345e-18 $lvl=2
CA7 CK:9 VSS! 7.2001e-18 $lvl=3
CA8 CK:13 n22:3 1.11832e-18 $lvl1=2 $lvl2=2
CA9 CK:9 n22:4 3.97808e-19 $lvl1=3 $lvl2=2
CA10 CK:9 Mmp26:s 2.79944e-19 $lvl1=3 $lvl2=4
CA11 CK:16 n22 1.52268e-18 $lvl1=1 $lvl2=2
CA12 CK:16 n22:4 5.71065e-18 $lvl1=1 $lvl2=2
CA13 CK:16 n22:3 7.62421e-18 $lvl1=1 $lvl2=2
CA14 CK:13 n22:4 3.47351e-18 $lvl1=2 $lvl2=2
CA15 CK:9 CKbb:17 1.83004e-18 $lvl1=3 $lvl2=3
CA16 CK:16 CKbb:47 9.9493e-19 $lvl1=1 $lvl2=1
CA17 CK:18 CKbb:47 9.27873e-19 $lvl1=1 $lvl2=1
CA18 CK:9 CKbb:43 6.07729e-19 $lvl1=3 $lvl2=2
CA19 CK:13 Mmp26:g 6.05493e-19 $lvl1=2 $lvl2=3
CA20 CK:18 CKbb:48 5.94939e-19 $lvl1=1 $lvl2=1
CA21 CK:18 CKbb:17 5.591e-19 $lvl1=1 $lvl2=3
CA22 CK:15 CKbb:17 4.20471e-19 $lvl1=2 $lvl2=3
CA23 CK:18 CKbb:39 4.0242e-19 $lvl1=1 $lvl2=2
CA24 CK:9 Mmp26:g 3.9703e-19 $lvl1=3 $lvl2=3
CA25 CK:16 CKbb:48 3.93162e-19 $lvl1=1 $lvl2=1
CA26 CK:13 CKbb:43 1.93956e-17 $lvl1=2 $lvl2=2
CA27 CK:18 CKbb:43 5.67154e-18 $lvl1=1 $lvl2=2
CA28 CK:13 CKbb:17 7.61693e-18 $lvl1=2 $lvl2=3
CA29 CK:16 CKbb:43 6.48049e-18 $lvl1=1 $lvl2=2
CA30 CK:18 n20:32 3.48958e-18 $lvl1=1 $lvl2=1
CA31 CK:16 n20:15 2.41025e-18 $lvl1=1 $lvl2=2
CA32 CK:16 n20:12 2.00135e-18 $lvl1=1 $lvl2=2
CA33 CK:13 n20:16 1.29034e-18 $lvl1=2 $lvl2=2
CA34 CK:16 n20:16 1.16544e-18 $lvl1=1 $lvl2=2
CA35 CK:18 n20:25 1.06026e-18 $lvl1=1 $lvl2=1
CA36 CK:13 n20:15 8.73015e-19 $lvl1=2 $lvl2=2
CA37 CK:13 n20:32 7.30923e-19 $lvl1=2 $lvl2=1
CA38 CK:18 n20:31 6.5478e-19 $lvl1=1 $lvl2=1
CA39 CK:16 n20:30 6.29665e-19 $lvl1=1 $lvl2=1
CA40 CK:16 n20:32 2.70037e-17 $lvl1=1 $lvl2=1
CA41 CK:16 n20:31 1.30834e-17 $lvl1=1 $lvl2=1
CA42 CK:13 CKb:55 3.81937e-18 $lvl1=2 $lvl2=2
CA43 CK:16 CKb:42 3.11736e-18 $lvl1=1 $lvl2=2
CA44 CK:15 CKb:45 2.62275e-18 $lvl1=2 $lvl2=2
CA45 CK:9 CKb:42 2.62039e-18 $lvl1=3 $lvl2=2
CA46 CK:16 CKb:45 1.74629e-18 $lvl1=1 $lvl2=2
CA47 CK:15 CKb:56 1.70579e-18 $lvl1=2 $lvl2=2
CA48 CK:8 CKb:46 1.6973e-18 $lvl1=3 $lvl2=2
CA49 CK:16 CKb:55 1.48593e-18 $lvl1=1 $lvl2=2
CA50 CK:13 CKb:58 1.46729e-18 $lvl1=2 $lvl2=1
CA51 CK:9 CKb:60 1.3933e-18 $lvl1=3 $lvl2=1
CA52 CK:9 CKb:58 1.32083e-18 $lvl1=3 $lvl2=1
CA53 CK:16 CKb:46 1.10697e-18 $lvl1=1 $lvl2=2
CA54 CK:15 CKb:42 1.06675e-18 $lvl1=2 $lvl2=2
CA55 CK:13 CKb:60 1.03677e-18 $lvl1=2 $lvl2=1
CA56 CK:9 Mmp20:d 1.01972e-18 $lvl1=3 $lvl2=4
CA57 CK:18 CKb:56 9.94011e-19 $lvl1=1 $lvl2=2
CA58 CK:9 CKb:56 9.82771e-19 $lvl1=3 $lvl2=2
CA59 CK:13 CKb:46 9.5872e-19 $lvl1=2 $lvl2=2
CA60 CK:9 CKb:55 9.21569e-19 $lvl1=3 $lvl2=2
CA61 CK:18 CKb:61 7.18397e-19 $lvl1=1 $lvl2=1
CA62 CK:9 CKb:45 6.90885e-19 $lvl1=3 $lvl2=2
CA63 CK:13 CKb:45 6.65242e-19 $lvl1=2 $lvl2=2
CA64 Mmn20:g CKb:51 6.51559e-19 $lvl1=3 $lvl2=2
CA65 CK:16 CKb:57 6.45738e-19 $lvl1=1 $lvl2=2
CA66 Mmn20:g CKb:57 5.91624e-19 $lvl1=3 $lvl2=2
CA67 CK:16 CKb:61 4.94615e-19 $lvl1=1 $lvl2=1
CA68 CK:13 CKb:24 4.93338e-19 $lvl1=2 $lvl2=3
CA69 CK:15 CKb:55 4.21434e-19 $lvl1=2 $lvl2=2
CA70 CK:18 CKb:24 4.09506e-19 $lvl1=1 $lvl2=3
CA71 CK:9 CKb:24 3.91837e-19 $lvl1=3 $lvl2=3
CA72 Mmn20:g CKb:61 3.65208e-19 $lvl1=3 $lvl2=1
CA73 CK:18 CKb:54 3.27118e-19 $lvl1=1 $lvl2=2
CA74 CK:16 CKb:54 2.95983e-19 $lvl1=1 $lvl2=2
CA75 Mmn20:g CKb:47 6.68057e-17 $lvl1=3 $lvl2=2
CA76 CK:13 CKb:57 4.57094e-18 $lvl1=2 $lvl2=2
CA77 CK:8 CKb:42 1.3007e-16 $lvl1=3 $lvl2=2
CA78 CK:9 CKb:57 5.82014e-18 $lvl1=3 $lvl2=2
CA79 CK:18 CKb:57 5.89673e-18 $lvl1=1 $lvl2=2
CA80 CK:16 CKb:60 7.12674e-18 $lvl1=1 $lvl2=1
CA81 CK:9 CKb:46 5.56496e-18 $lvl1=3 $lvl2=2
CA82 CK:18 CKb:60 1.77841e-17 $lvl1=1 $lvl2=1
CA83 CK:15 CKb:57 5.04543e-18 $lvl1=2 $lvl2=2
CA84 CK:15 CKb:60 5.79935e-18 $lvl1=2 $lvl2=1
CA85 CK:15 CKb:58 9.07704e-18 $lvl1=2 $lvl2=1
CA86 CK:16 CKb:58 3.34592e-17 $lvl1=1 $lvl2=1
CA87 CK:15 CKb:46 1.00472e-17 $lvl1=2 $lvl2=2
CA88 CK:18 CKb:58 5.51303e-18 $lvl1=1 $lvl2=1
CA89 CK:18 CKb:55 8.25651e-18 $lvl1=1 $lvl2=2
CA90 CK:16 VSS!:50 9.71365e-19 $lvl1=1 $lvl2=1
CA91 Mmn20:g VSS!:18 7.97164e-18 $lvl1=3 $lvl2=2
CA92 Mmn20:g VSS!:47 6.48008e-17 $lvl1=3 $lvl2=2
CA93 CK:9 VDD!:1 3.71761e-18 $lvl1=3 $lvl2=2
CA94 CK:13 VDD! 2.89687e-18 $lvl1=2 $lvl2=1
CA95 CK:15 VDD!:1 2.77662e-18 $lvl1=2 $lvl2=2
CA96 CK:16 VDD!:51 2.42561e-18 $lvl1=1 $lvl2=1
CA97 CK:18 VDD!:50 1.08733e-18 $lvl1=1 $lvl2=1
CA98 CK:16 VDD!:4 1.00045e-18 $lvl1=1 $lvl2=2
CA99 CK:9 Mmp20:s 7.3892e-19 $lvl1=3 $lvl2=4
CA100 CK:13 VDD!:1 5.7966e-18 $lvl1=2 $lvl2=2
CA101 CK:8 VDD!:4 7.79165e-18 $lvl1=3 $lvl2=2
CA102 CK:15 VDD! 4.5351e-18 $lvl1=2 $lvl2=1
CA103 CK:16 VDD!:1 1.64282e-17 $lvl1=1 $lvl2=2
CA104 CK:16 VDD!:50 1.46739e-17 $lvl1=1 $lvl2=1
CA105 CK:16 VDD! 1.08763e-17 $lvl1=1 $lvl2=1
CA106 CK:18 VDD! 4.79509e-18 $lvl1=1 $lvl2=1
CA107 CK:9 VDD! 1.96138e-17 $lvl1=3 $lvl2=1
CA108 CK:8 VDD!:1 1.29059e-16 $lvl1=3 $lvl2=2
CA109 Mmn20:g D:9 2.85144e-18 $lvl1=3 $lvl2=3
CA110 CK:16 D:16 2.14774e-18 $lvl1=1 $lvl2=1
CA111 CK:9 D:8 1.44042e-18 $lvl1=3 $lvl2=3
CA112 Mmn20:g D:15 1.38642e-18 $lvl1=3 $lvl2=2
CA113 CK:13 D:8 1.06627e-18 $lvl1=2 $lvl2=3
CA114 CK:18 D 8.51079e-19 $lvl1=1 $lvl2=1
CA115 CK:13 D:16 5.47893e-19 $lvl1=2 $lvl2=1
CA116 CK:18 D:18 5.37341e-19 $lvl1=1 $lvl2=1
CA117 CK:18 D:16 2.3421e-17 $lvl1=1 $lvl2=1
ReA1 CK:16 CK 0.305288 $metal1  $L=0.635 $W=0.260000 $SI_W=0.26 $TYPE=10 $DIR=1 $LLX=0.790000 $LLY=2.600000 $URX=1.050000 $URY=3.235000 $lvl=1
ReA2 CK CK:17 0.069712 $metal1  $L=0.145 $W=0.260000 $SI_W=0.26 $TYPE=10 $DIR=1 $LLX=0.815000 $LLY=2.455000 $URX=1.075000 $URY=2.600000 $lvl=1
ReA3 CK:17 CK:18 0.221154 $metal1  $L=0.46 $W=0.260000 $SI_W=0.26 $TYPE=10 $DIR=1 $LLX=0.790000 $LLY=1.995000 $URX=1.050000 $URY=2.455000 $lvl=1
RfA4 CK:12 CK:13 12.423529 $li  $L=0.165 $W=0.170000 $SI_W=0.17 $TYPE=10 $DIR=0 $LLX=0.905000 $LLY=2.370000 $URX=1.070000 $URY=2.540000 $lvl=2
RfA5 CK:13 CK:14 32.376472 $li  $L=0.43 $W=0.170000 $SI_W=0.17 $TYPE=10 $DIR=0 $LLX=0.475000 $LLY=2.370000 $URX=0.905000 $URY=2.540000 $lvl=2
RfA6 CK:14 CK:15 12.423529 $li  $L=0.165 $W=0.170000 $SI_W=0.17 $TYPE=10 $DIR=0 $LLX=0.310000 $LLY=2.370000 $URX=0.475000 $URY=2.540000 $lvl=2
RgA7 CK:8 Mmp20:g 173.519989 $poly  $L=0.54 $W=0.150000 $SI_W=0.15 $TYPE=10 $DIR=1 $LLX=0.400000 $LLY=3.355000 $URX=0.550000 $URY=3.895000 $lvl=3
RgA8 Mmp20:g CK:9 270.359070 $poly  $L=0.9 $W=0.150000 $SI_W=0.15 $TYPE=10 $DIR=1 $LLX=0.400000 $LLY=2.455000 $URX=0.550000 $URY=3.355000 $lvl=3
RgA9 CK:9 CK:10 34.134449 $poly  $L=0.1645 $W=0.270000 $SI_W=0.27 $TYPE=10 $DIR=1 $LLX=0.340000 $LLY=2.290500 $URX=0.610000 $URY=2.455000 $lvl=3
RgA10 CK:10 Mmn20:g 540.687988 $poly  $L=1.6825 $W=0.150000 $SI_W=0.15 $TYPE=10 $DIR=1 $LLX=0.400000 $LLY=0.607500 $URX=0.550000 $URY=2.290000 $lvl=3
RgA11 Mmn20:g CK:11 116.483322 $poly  $L=0.3625 $W=0.150000 $SI_W=0.15 $TYPE=10 $DIR=1 $LLX=0.400000 $LLY=0.245000 $URX=0.550000 $URY=0.607500 $lvl=3
RjA12 CK:13 CK:17 152.000000 $mcon  $L=0.17 $W=0.17 $A=0.0289 $VC=0 $SAVL=0 $SAVC=0 $SI_A=0.0289 $COVER_DIR=0 $LLX=0.000000 $LLY=0.000000 $URX=0.170000 $URY=0.170000 $lvl=6
RiA13 CK:9 CK:14 15.000000 $licon  $L=0.17 $W=0.17 $A=0.0289 $VC=0 $SAVL=0 $SAVC=0 $SI_A=0.0289 $COVER_DIR=0 $LLX=0.000000 $LLY=0.000000 $URX=0.170000 $URY=0.170000 $lvl=7
*
*|NET mout 2.21956e-15
*|I (Mmp30:d Mmp30 d X 0 3.6505 3.3550) // $llx=3.6505 $lly=3.3550 $urx=3.6505 $ury=3.3550 $lvl=4
*|I (Mmp40:s Mmp40 s X 0 3.9295 3.3550) // $llx=3.9295 $lly=3.3550 $urx=3.9295 $ury=3.3550 $lvl=4
*|I (Mmp35:g Mmp35 g X 0 2.1950 3.3550) // $llx=2.1950 $lly=3.3550 $urx=2.1950 $ury=3.3550 $lvl=3
*|I (Mmn30:d Mmn30 d X 0 3.6505 0.6075) // $llx=3.6505 $lly=0.6075 $urx=3.6505 $ury=0.6075 $lvl=4
*|I (Mmn40:s Mmn40 s X 0 3.9295 0.6075) // $llx=3.9295 $lly=0.6075 $urx=3.9295 $ury=0.6075 $lvl=4
*|I (Mmn35:g Mmn35 g X 0 2.1950 0.6075) // $llx=2.1950 $lly=0.6075 $urx=2.1950 $ury=0.6075 $lvl=3
*|S (mout 2.1950 0.6075) // $llx=2.1950 $lly=0.6075 $urx=2.1950 $ury=0.6075 $lvl=3
*|S (mout:8 2.1950 3.8950) // $llx=2.1950 $lly=3.8950 $urx=2.1950 $ury=3.8950 $lvl=3
*|S (mout:9 2.2350 1.4350) // $llx=2.2350 $lly=1.4350 $urx=2.2350 $ury=1.4350 $lvl=3
*|S (mout:10 2.2350 1.2700) // $llx=2.2350 $lly=1.2700 $urx=2.2350 $ury=1.2700 $lvl=3
*|S (mout:11 2.1950 0.2450) // $llx=2.1950 $lly=0.2450 $urx=2.1950 $ury=0.2450 $lvl=3
*|S (mout:12 3.7900 3.7450) // $llx=3.7900 $lly=3.7450 $urx=3.7900 $ury=3.7450 $lvl=2
*|S (mout:14 3.7900 3.3550) // $llx=3.7900 $lly=3.3550 $urx=3.7900 $ury=3.3550 $lvl=2
*|S (mout:15 3.7900 2.8950) // $llx=3.7900 $lly=2.8950 $urx=3.7900 $ury=2.8950 $lvl=2
*|S (mout:16 3.7900 2.7300) // $llx=3.7900 $lly=2.7300 $urx=3.7900 $ury=2.7300 $lvl=2
*|S (mout:17 3.7900 0.8200) // $llx=3.7900 $lly=0.8200 $urx=3.7900 $ury=0.8200 $lvl=2
*|S (mout:18 3.7900 0.6550) // $llx=3.7900 $lly=0.6550 $urx=3.7900 $ury=0.6550 $lvl=2
*|S (mout:20 3.7900 0.6050) // $llx=3.7900 $lly=0.6050 $urx=3.7900 $ury=0.6050 $lvl=2
*|S (mout:21 3.7900 0.3950) // $llx=3.7900 $lly=0.3950 $urx=3.7900 $ury=0.3950 $lvl=2
*|S (mout:22 3.9550 1.4350) // $llx=3.9550 $lly=1.4350 $urx=3.9550 $ury=1.4350 $lvl=2
*|S (mout:23 3.7900 1.4350) // $llx=3.7900 $lly=1.4350 $urx=3.7900 $ury=1.4350 $lvl=2
*|S (mout:24 2.2350 1.4350) // $llx=2.2350 $lly=1.4350 $urx=2.2350 $ury=1.4350 $lvl=2
*|S (mout:25 2.0500 1.4350) // $llx=2.0500 $lly=1.4350 $urx=2.0500 $ury=1.4350 $lvl=2
*|S (mout:26 3.7900 3.0400) // $llx=3.7900 $lly=3.0400 $urx=3.7900 $ury=3.0400 $lvl=1
*|S (mout:27 3.7900 2.8950) // $llx=3.7900 $lly=2.8950 $urx=3.7900 $ury=2.8950 $lvl=1
*|S (mout:28 3.7900 1.4350) // $llx=3.7900 $lly=1.4350 $urx=3.7900 $ury=1.4350 $lvl=1
*|S (mout:29 3.7900 0.6550) // $llx=3.7900 $lly=0.6550 $urx=3.7900 $ury=0.6550 $lvl=1
*|S (mout:30 3.7900 0.5100) // $llx=3.7900 $lly=0.5100 $urx=3.7900 $ury=0.5100 $lvl=1
CJ1 Mmn30:d VSS! 2.60065e-18 $lvl=4
CJ2 Mmp30:d VSS! 2.97731e-18 $lvl=4
CJ3 mout:28 VSS! 1.05941e-17 $lvl=1
CJ4 mout:26 VSS! 1.05877e-17 $lvl=1
CJ5 mout:30 VSS! 6.21478e-18 $lvl=1
CJ6 mout:8 VSS! 4.07208e-18 $lvl=3
CJ7 mout:24 VSS! 9.58838e-18 $lvl=2
CJ8 mout:22 VSS! 1.51731e-17 $lvl=2
CJ9 mout:25 VSS! 4.32573e-18 $lvl=2
CJ10 mout:17 VSS! 4.78347e-18 $lvl=2
CJ11 mout:21 VSS! 1.51034e-18 $lvl=2
CJ12 mout:12 VSS! 5.80651e-18 $lvl=2
CJ13 mout:16 VSS! 3.40842e-18 $lvl=2
CJ14 mout:18 VSS! 2.09958e-18 $lvl=2
CJ15 mout:23 VSS! 2.61321e-18 $lvl=2
CJ16 mout:15 VSS! 2.01643e-18 $lvl=2
CJ17 mout:9 VSS! 2.03761e-17 $lvl=3
CJ18 mout VSS! 1.7886e-18 $lvl=3
CJ19 mout:8 n26 1.31265e-18 $lvl1=3 $lvl2=2
CJ20 mout:9 n25:3 5.64565e-19 $lvl1=3 $lvl2=2
CJ21 mout n25:4 4.10848e-19 $lvl1=3 $lvl2=2
CJ22 mout:9 Mmn35:d 4.09223e-19 $lvl1=3 $lvl2=4
CJ23 mout n25:3 6.47234e-17 $lvl1=3 $lvl2=2
CJ24 mout:8 n26:3 6.84778e-17 $lvl1=3 $lvl2=2
CJ25 mout:15 n30:26 9.00803e-18 $lvl1=2 $lvl2=2
CJ26 mout:16 n30:26 8.85611e-18 $lvl1=2 $lvl2=2
CJ27 mout:18 n30:29 6.36418e-18 $lvl1=2 $lvl2=2
CJ28 mout:12 n30:26 4.40119e-18 $lvl1=2 $lvl2=2
CJ29 mout:28 n30:35 3.01713e-18 $lvl1=1 $lvl2=2
CJ30 mout:16 n30:23 2.99952e-18 $lvl1=2 $lvl2=2
CJ31 mout:17 n30:29 2.7934e-18 $lvl1=2 $lvl2=2
CJ32 mout:21 n30:32 2.65476e-18 $lvl1=2 $lvl2=2
CJ33 mout:23 n30:39 2.65272e-18 $lvl1=2 $lvl2=1
CJ34 mout:26 n30:26 2.6084e-18 $lvl1=1 $lvl2=2
CJ35 mout:12 n30:38 2.38992e-18 $lvl1=2 $lvl2=1
CJ36 mout:18 n30:28 2.35057e-18 $lvl1=2 $lvl2=2
CJ37 mout:26 n30:23 2.03362e-18 $lvl1=1 $lvl2=2
CJ38 mout:15 n30:38 2.00303e-18 $lvl1=2 $lvl2=1
CJ39 mout:21 n30:28 1.98556e-18 $lvl1=2 $lvl2=2
CJ40 mout:17 n30:32 1.97901e-18 $lvl1=2 $lvl2=2
CJ41 mout:30 n30:29 1.90562e-18 $lvl1=1 $lvl2=2
CJ42 mout:26 n30:35 1.77855e-18 $lvl1=1 $lvl2=2
CJ43 mout:18 n30:40 1.70638e-18 $lvl1=2 $lvl2=1
CJ44 mout:23 n30:40 1.59202e-18 $lvl1=2 $lvl2=1
CJ45 mout:28 n30:36 1.39344e-18 $lvl1=1 $lvl2=2
CJ46 mout:22 n30:39 1.34172e-18 $lvl1=2 $lvl2=1
CJ47 mout:15 n30:23 1.28929e-18 $lvl1=2 $lvl2=2
CJ48 mout:21 n30:29 1.21016e-18 $lvl1=2 $lvl2=2
CJ49 mout:28 n30:38 1.0894e-18 $lvl1=1 $lvl2=1
CJ50 mout:26 n30:36 1.07814e-18 $lvl1=1 $lvl2=2
CJ51 mout:17 n30:28 1.48432e-17 $lvl1=2 $lvl2=2
CJ52 mout:12 n30:23 4.60423e-17 $lvl1=2 $lvl2=2
CJ53 mout:28 n30:39 7.1297e-17 $lvl1=1 $lvl2=1
CJ54 mout:26 n30:38 5.4133e-17 $lvl1=1 $lvl2=1
CJ55 mout:28 n30:40 3.27726e-17 $lvl1=1 $lvl2=1
CJ56 mout:26 n30:39 3.36657e-17 $lvl1=1 $lvl2=1
CJ57 mout:30 n30:40 5.22529e-17 $lvl1=1 $lvl2=1
CJ58 mout VSS!:17 7.68939e-18 $lvl1=3 $lvl2=2
CJ59 mout:17 VSS!:14 7.5264e-18 $lvl1=2 $lvl2=2
CJ60 mout:18 VSS!:40 7.1838e-18 $lvl1=2 $lvl2=2
CJ61 mout:21 VSS!:40 4.87082e-18 $lvl1=2 $lvl2=2
CJ62 mout:18 VSS!:14 3.34982e-18 $lvl1=2 $lvl2=2
CJ63 mout:28 VSS!:50 2.98764e-18 $lvl1=1 $lvl2=1
CJ64 mout:30 VSS!:14 2.59065e-18 $lvl1=1 $lvl2=2
CJ65 mout:18 VSS!:50 2.21367e-18 $lvl1=2 $lvl2=1
CJ66 mout:30 VSS!:40 2.04153e-18 $lvl1=1 $lvl2=2
CJ67 mout:21 VSS!:50 1.98621e-18 $lvl1=2 $lvl2=1
CJ68 mout:22 VSS!:40 1.84455e-18 $lvl1=2 $lvl2=2
CJ69 mout:9 VSS!:44 1.42829e-18 $lvl1=3 $lvl2=2
CJ70 mout:21 VSS!:14 1.59115e-17 $lvl1=2 $lvl2=2
CJ71 mout:30 VSS!:50 2.67172e-17 $lvl1=1 $lvl2=1
CJ72 mout:17 VSS!:40 1.79642e-17 $lvl1=2 $lvl2=2
CJ73 mout VSS!:44 6.44541e-17 $lvl1=3 $lvl2=2
ReJ364 mout:26 mout:27 0.078804 $metal1  $L=0.145 $W=0.230000 $SI_W=0.23 $TYPE=10 $DIR=1 $LLX=3.675000 $LLY=2.895000 $URX=3.905000 $URY=3.040000 $lvl=1
ReJ365 mout:27 mout:28 0.793478 $metal1  $L=1.46 $W=0.230000 $SI_W=0.23 $TYPE=10 $DIR=1 $LLX=3.675000 $LLY=1.435000 $URX=3.905000 $URY=2.895000 $lvl=1
ReJ366 mout:28 mout:29 0.423913 $metal1  $L=0.78 $W=0.230000 $SI_W=0.23 $TYPE=10 $DIR=1 $LLX=3.675000 $LLY=0.655000 $URX=3.905000 $URY=1.435000 $lvl=1
ReJ367 mout:29 mout:30 0.078804 $metal1  $L=0.145 $W=0.230000 $SI_W=0.23 $TYPE=10 $DIR=1 $LLX=3.675000 $LLY=0.510000 $URX=3.905000 $URY=0.655000 $lvl=1
RfJ368 mout:12 mout:14 29.364706 $li  $L=0.39 $W=0.170000 $SI_W=0.17 $TYPE=10 $DIR=1 $LLX=3.705000 $LLY=3.355000 $URX=3.875000 $URY=3.745000 $lvl=2
RfJ369 mout:14 mout:15 34.635296 $li  $L=0.46 $W=0.170000 $SI_W=0.17 $TYPE=10 $DIR=1 $LLX=3.705000 $LLY=2.895000 $URX=3.875000 $URY=3.355000 $lvl=2
RfJ370 mout:15 mout:16 12.423529 $li  $L=0.165 $W=0.170000 $SI_W=0.17 $TYPE=10 $DIR=1 $LLX=3.705000 $LLY=2.730000 $URX=3.875000 $URY=2.895000 $lvl=2
RfJ371 mout:17 mout:18 12.423529 $li  $L=0.165 $W=0.170000 $SI_W=0.17 $TYPE=10 $DIR=1 $LLX=3.705000 $LLY=0.655000 $URX=3.875000 $URY=0.820000 $lvl=2
RfJ372 mout:18 mout:20 3.764706 $li  $L=0.05 $W=0.170000 $SI_W=0.17 $TYPE=10 $DIR=1 $LLX=3.705000 $LLY=0.605000 $URX=3.875000 $URY=0.655000 $lvl=2
RfJ373 mout:20 mout:21 15.811765 $li  $L=0.21 $W=0.170000 $SI_W=0.17 $TYPE=10 $DIR=1 $LLX=3.705000 $LLY=0.395000 $URX=3.875000 $URY=0.605000 $lvl=2
RfJ374 mout:22 mout:23 12.423529 $li  $L=0.165 $W=0.170000 $SI_W=0.17 $TYPE=10 $DIR=0 $LLX=3.790000 $LLY=1.350000 $URX=3.955000 $URY=1.520000 $lvl=2
RfJ375 mout:23 mout:24 117.082352 $li  $L=1.555 $W=0.170000 $SI_W=0.17 $TYPE=10 $DIR=0 $LLX=2.235000 $LLY=1.350000 $URX=3.790000 $URY=1.520000 $lvl=2
RfJ376 mout:24 mout:25 13.929413 $li  $L=0.185 $W=0.170000 $SI_W=0.17 $TYPE=10 $DIR=0 $LLX=2.050000 $LLY=1.350000 $URX=2.235000 $URY=1.520000 $lvl=2
RgJ377 mout:8 Mmp35:g 173.519989 $poly  $L=0.54 $W=0.150000 $SI_W=0.15 $TYPE=10 $DIR=1 $LLX=2.120000 $LLY=3.355000 $URX=2.270000 $URY=3.895000 $lvl=3
RgJ378 Mmp35:g mout:9 593.395569 $poly  $L=1.92 $W=0.150000 $SI_W=0.15 $TYPE=10 $DIR=1 $LLX=2.120000 $LLY=1.435000 $URX=2.270000 $URY=3.355000 $lvl=3
RgJ379 mout:9 mout:10 34.134449 $poly  $L=0.1645 $W=0.270000 $SI_W=0.27 $TYPE=10 $DIR=1 $LLX=2.100000 $LLY=1.270500 $URX=2.370000 $URY=1.435000 $lvl=3
RgJ380 mout:10 mout 212.927963 $poly  $L=0.6625 $W=0.150000 $SI_W=0.15 $TYPE=10 $DIR=1 $LLX=2.120000 $LLY=0.607500 $URX=2.270000 $URY=1.270000 $lvl=3
RgJ381 mout mout:11 116.483322 $poly  $L=0.3625 $W=0.150000 $SI_W=0.15 $TYPE=10 $DIR=1 $LLX=2.120000 $LLY=0.245000 $URX=2.270000 $URY=0.607500 $lvl=3
RhJ382 Mmn30:d mout:20 15.000000 $licon_diff  $L=0.17 $W=0.17 $A=0.0289 $VC=0 $SAVL=0 $SAVC=0 $SI_A=0.0289 $COVER_DIR=0 $LLX=0.000000 $LLY=0.000000 $URX=0.170000 $URY=0.170000 $lvl=5
Rh_2_J383 Mmp30:d mout:14 7.500000 $licon_diff  $A=0.0578 $VC=0 $SAVL=0 $SAVC=0 $SI_A=0.0578 $COVER_DIR=0 $LLX=0.000000 $LLY=0.000000 $URX=-0.057800 $URY=-2.000000 $lvl=5
RjJ384 mout:15 mout:27 152.000000 $mcon  $L=0.17 $W=0.17 $A=0.0289 $VC=0 $SAVL=0 $SAVC=0 $SI_A=0.0289 $COVER_DIR=0 $LLX=0.000000 $LLY=0.000000 $URX=0.170000 $URY=0.170000 $lvl=6
RjJ385 mout:23 mout:28 152.000000 $mcon  $L=0.17 $W=0.17 $A=0.0289 $VC=0 $SAVL=0 $SAVC=0 $SI_A=0.0289 $COVER_DIR=0 $LLX=0.000000 $LLY=0.000000 $URX=0.170000 $URY=0.170000 $lvl=6
RjJ386 mout:18 mout:29 152.000000 $mcon  $L=0.17 $W=0.17 $A=0.0289 $VC=0 $SAVL=0 $SAVC=0 $SI_A=0.0289 $COVER_DIR=0 $LLX=0.000000 $LLY=0.000000 $URX=0.170000 $URY=0.170000 $lvl=6
RiJ387 mout:9 mout:24 15.000000 $licon  $L=0.17 $W=0.17 $A=0.0289 $VC=0 $SAVL=0 $SAVC=0 $SI_A=0.0289 $COVER_DIR=0 $LLX=0.000000 $LLY=0.000000 $URX=0.170000 $URY=0.170000 $lvl=7
RmwJ388 Mmp40:s Mmp30:d 0.001000 $diff $W=1000000 $SI_W=1000000 $TYPE=1 $DIR=0
RmwJ389 Mmn40:s Mmn30:d 0.001000 $diff $W=1000000 $SI_W=1000000 $TYPE=1 $DIR=0
RmwJ390 Mmn35:g mout 0.001000 $poly $W=1000000 $SI_W=1000000 $TYPE=1 $DIR=0
*
*|NET VSS! 6.91595e-15
*|P (VSS! X 0 4.8250 0.0050) // $llx=4.8250 $lly=0.0050 $urx=4.8250 $ury=0.0050 $lvl=1
*|I (Mmn45@1:s Mmn45@1 s X 0 5.2795 0.6950) // $llx=5.2795 $lly=0.6950 $urx=5.2795 $ury=0.6950 $lvl=4
*|I (Mmn45@1:b Mmn45@1 b X 0 5.3550 0.6950) // $llx=5.3550 $lly=0.6950 $urx=5.3550 $ury=0.6950 $lvl=8
*|I (Mmn45:s Mmn45 s X 0 5.8605 0.6950) // $llx=5.8605 $lly=0.6950 $urx=5.8605 $ury=0.6950 $lvl=4
*|I (Mmn45:b Mmn45 b X 0 5.7850 0.6950) // $llx=5.7850 $lly=0.6950 $urx=5.7850 $ury=0.6950 $lvl=8
*|I (Mmn50:s Mmn50 s X 0 4.9405 0.6075) // $llx=4.9405 $lly=0.6075 $urx=4.9405 $ury=0.6075 $lvl=4
*|I (Mmn50:b Mmn50 b X 0 4.8650 0.6075) // $llx=4.8650 $lly=0.6075 $urx=4.8650 $ury=0.6075 $lvl=8
*|I (Mmn55@3:s Mmn55@3 s X 0 7.0895 0.7750) // $llx=7.0895 $lly=0.7750 $urx=7.0895 $ury=0.7750 $lvl=4
*|I (Mmn55@3:b Mmn55@3 b X 0 7.1650 0.7750) // $llx=7.1650 $lly=0.7750 $urx=7.1650 $ury=0.7750 $lvl=8
*|I (Mmn55:s Mmn55 s X 0 7.6705 0.7750) // $llx=7.6705 $lly=0.7750 $urx=7.6705 $ury=0.7750 $lvl=4
*|I (Mmn55:b Mmn55 b X 0 7.5950 0.7750) // $llx=7.5950 $lly=0.7750 $urx=7.5950 $ury=0.7750 $lvl=8
*|I (Mmn55@1:s Mmn55@1 s X 0 7.9495 0.7750) // $llx=7.9495 $lly=0.7750 $urx=7.9495 $ury=0.7750 $lvl=4
*|I (Mmn55@1:b Mmn55@1 b X 0 8.0250 0.7750) // $llx=8.0250 $lly=0.7750 $urx=8.0250 $ury=0.7750 $lvl=8
*|I (Mmn55@2:s Mmn55@2 s X 0 8.5305 0.7750) // $llx=8.5305 $lly=0.7750 $urx=8.5305 $ury=0.7750 $lvl=4
*|I (Mmn55@2:b Mmn55@2 b X 0 8.4550 0.7750) // $llx=8.4550 $lly=0.7750 $urx=8.4550 $ury=0.7750 $lvl=8
*|I (Mmn57@1:s Mmn57@1 s X 0 8.8095 0.7750) // $llx=8.8095 $lly=0.7750 $urx=8.8095 $ury=0.7750 $lvl=4
*|I (Mmn57@1:b Mmn57@1 b X 0 8.8850 0.7750) // $llx=8.8850 $lly=0.7750 $urx=8.8850 $ury=0.7750 $lvl=8
*|I (Mmn57:s Mmn57 s X 0 9.3905 0.7750) // $llx=9.3905 $lly=0.7750 $urx=9.3905 $ury=0.7750 $lvl=4
*|I (Mmn57:b Mmn57 b X 0 9.3150 0.7750) // $llx=9.3150 $lly=0.7750 $urx=9.3150 $ury=0.7750 $lvl=8
*|I (Mmn57@3:s Mmn57@3 s X 0 9.6695 0.7750) // $llx=9.6695 $lly=0.7750 $urx=9.6695 $ury=0.7750 $lvl=4
*|I (Mmn57@3:b Mmn57@3 b X 0 9.7450 0.7750) // $llx=9.7450 $lly=0.7750 $urx=9.7450 $ury=0.7750 $lvl=8
*|I (Mmn57@2:s Mmn57@2 s X 0 10.2505 0.7750) // $llx=10.2505 $lly=0.7750 $urx=10.2505 $ury=0.7750 $lvl=4
*|I (Mmn57@2:b Mmn57@2 b X 0 10.1750 0.7750) // $llx=10.1750 $lly=0.7750 $urx=10.1750 $ury=0.7750 $lvl=8
*|I (Mmn30:s Mmn30 s X 0 3.4995 0.6075) // $llx=3.4995 $lly=0.6075 $urx=3.4995 $ury=0.6075 $lvl=4
*|I (Mmn30:b Mmn30 b X 0 3.5750 0.6075) // $llx=3.5750 $lly=0.6075 $urx=3.5750 $ury=0.6075 $lvl=8
*|I (Mmn40:b Mmn40 b X 0 4.0050 0.6075) // $llx=4.0050 $lly=0.6075 $urx=4.0050 $ury=0.6075 $lvl=8
*|I (Mmn26:b Mmn26 b X 0 1.3350 0.6075) // $llx=1.3350 $lly=0.6075 $urx=1.3350 $ury=0.6075 $lvl=8
*|I (Mmn21:s Mmn21 s X 0 2.5495 0.6075) // $llx=2.5495 $lly=0.6075 $urx=2.5495 $ury=0.6075 $lvl=4
*|I (Mmn21:b Mmn21 b X 0 2.6250 0.6075) // $llx=2.6250 $lly=0.6075 $urx=2.6250 $ury=0.6075 $lvl=8
*|I (Mmn20:s Mmn20 s X 0 0.5505 0.6075) // $llx=0.5505 $lly=0.6075 $urx=0.5505 $ury=0.6075 $lvl=4
*|I (Mmn20:b Mmn20 b X 0 0.4750 0.6075) // $llx=0.4750 $lly=0.6075 $urx=0.4750 $ury=0.6075 $lvl=8
*|I (Mmn35:s Mmn35 s X 0 2.2705 0.6075) // $llx=2.2705 $lly=0.6075 $urx=2.2705 $ury=0.6075 $lvl=4
*|I (Mmn35:b Mmn35 b X 0 2.1950 0.6075) // $llx=2.1950 $lly=0.6075 $urx=2.1950 $ury=0.6075 $lvl=8
*|I (Mmn25:s Mmn25 s X 0 0.8295 0.6075) // $llx=0.8295 $lly=0.6075 $urx=0.8295 $ury=0.6075 $lvl=4
*|I (Mmn25:b Mmn25 b X 0 0.9050 0.6075) // $llx=0.9050 $lly=0.6075 $urx=0.9050 $ury=0.6075 $lvl=8
*|I (Mmn56:s Mmn56 s X 0 6.8105 0.7750) // $llx=6.8105 $lly=0.7750 $urx=6.8105 $ury=0.7750 $lvl=4
*|I (Mmn56:b Mmn56 b X 0 6.7350 0.7750) // $llx=6.7350 $lly=0.7750 $urx=6.7350 $ury=0.7750 $lvl=8
*|I (Mmn36:b Mmn36 b X 0 1.7650 0.6075) // $llx=1.7650 $lly=0.6075 $urx=1.7650 $ury=0.6075 $lvl=8
*|I (Mmn51:b Mmn51 b X 0 4.4350 0.6075) // $llx=4.4350 $lly=0.6075 $urx=4.4350 $ury=0.6075 $lvl=8
*|S (VSS!:1 10.3900 1.1550) // $llx=10.3900 $lly=1.1550 $urx=10.3900 $ury=1.1550 $lvl=2
*|S (VSS!:3 10.3900 0.7750) // $llx=10.3900 $lly=0.7750 $urx=10.3900 $ury=0.7750 $lvl=2
*|S (VSS!:4 10.3900 0.0000) // $llx=10.3900 $lly=0.0000 $urx=10.3900 $ury=0.0000 $lvl=2
*|S (VSS!:5 9.5300 0.0000) // $llx=9.5300 $lly=0.0000 $urx=9.5300 $ury=0.0000 $lvl=2
*|S (VSS!:6 8.9700 0.0000) // $llx=8.9700 $lly=0.0000 $urx=8.9700 $ury=0.0000 $lvl=2
*|S (VSS!:7 8.9700 0.0000) // $llx=8.9700 $lly=0.0000 $urx=8.9700 $ury=0.0000 $lvl=4
*|S (VSS!:9 8.6700 0.0000) // $llx=8.6700 $lly=0.0000 $urx=8.6700 $ury=0.0000 $lvl=2
*|S (VSS!:10 7.8100 0.0000) // $llx=7.8100 $lly=0.0000 $urx=7.8100 $ury=0.0000 $lvl=2
*|S (VSS!:11 6.9500 0.0000) // $llx=6.9500 $lly=0.0000 $urx=6.9500 $ury=0.0000 $lvl=2
*|S (VSS!:12 6.0000 0.0000) // $llx=6.0000 $lly=0.0000 $urx=6.0000 $ury=0.0000 $lvl=2
*|S (VSS!:13 5.1400 0.0000) // $llx=5.1400 $lly=0.0000 $urx=5.1400 $ury=0.0000 $lvl=2
*|S (VSS!:14 3.6800 0.0000) // $llx=3.6800 $lly=0.0000 $urx=3.6800 $ury=0.0000 $lvl=2
*|S (VSS!:16 3.3600 0.0000) // $llx=3.3600 $lly=0.0000 $urx=3.3600 $ury=0.0000 $lvl=2
*|S (VSS!:17 2.4100 0.0000) // $llx=2.4100 $lly=0.0000 $urx=2.4100 $ury=0.0000 $lvl=2
*|S (VSS!:18 0.6900 0.0000) // $llx=0.6900 $lly=0.0000 $urx=0.6900 $ury=0.0000 $lvl=2
*|S (VSS!:19 0.0000 0.0000) // $llx=0.0000 $lly=0.0000 $urx=0.0000 $ury=0.0000 $lvl=2
*|S (VSS!:20 11.0395 0.0000) // $llx=11.0395 $lly=0.0000 $urx=11.0395 $ury=0.0000 $lvl=2
*|S (VSS!:22 9.5300 0.7750) // $llx=9.5300 $lly=0.7750 $urx=9.5300 $ury=0.7750 $lvl=2
*|S (VSS!:23 9.5300 1.1550) // $llx=9.5300 $lly=1.1550 $urx=9.5300 $ury=1.1550 $lvl=2
*|S (VSS!:25 8.6700 0.7750) // $llx=8.6700 $lly=0.7750 $urx=8.6700 $ury=0.7750 $lvl=2
*|S (VSS!:26 8.6700 1.1550) // $llx=8.6700 $lly=1.1550 $urx=8.6700 $ury=1.1550 $lvl=2
*|S (VSS!:28 7.8100 0.7750) // $llx=7.8100 $lly=0.7750 $urx=7.8100 $ury=0.7750 $lvl=2
*|S (VSS!:29 7.8100 1.1550) // $llx=7.8100 $lly=1.1550 $urx=7.8100 $ury=1.1550 $lvl=2
*|S (VSS!:31 6.9500 0.7750) // $llx=6.9500 $lly=0.7750 $urx=6.9500 $ury=0.7750 $lvl=2
*|S (VSS!:32 6.9500 1.1550) // $llx=6.9500 $lly=1.1550 $urx=6.9500 $ury=1.1550 $lvl=2
*|S (VSS!:34 6.0000 0.6950) // $llx=6.0000 $lly=0.6950 $urx=6.0000 $ury=0.6950 $lvl=2
*|S (VSS!:35 6.0000 1.0150) // $llx=6.0000 $lly=1.0150 $urx=6.0000 $ury=1.0150 $lvl=2
*|S (VSS!:37 5.1400 0.6950) // $llx=5.1400 $lly=0.6950 $urx=5.1400 $ury=0.6950 $lvl=2
*|S (VSS!:38 5.1400 1.0150) // $llx=5.1400 $lly=1.0150 $urx=5.1400 $ury=1.0150 $lvl=2
*|S (VSS!:40 3.3600 0.6050) // $llx=3.3600 $lly=0.6050 $urx=3.3600 $ury=0.6050 $lvl=2
*|S (VSS!:41 3.3600 0.8200) // $llx=3.3600 $lly=0.8200 $urx=3.3600 $ury=0.8200 $lvl=2
*|S (VSS!:43 2.4100 0.6050) // $llx=2.4100 $lly=0.6050 $urx=2.4100 $ury=0.6050 $lvl=2
*|S (VSS!:44 2.4100 0.8200) // $llx=2.4100 $lly=0.8200 $urx=2.4100 $ury=0.8200 $lvl=2
*|S (VSS!:46 0.6900 0.6050) // $llx=0.6900 $lly=0.6050 $urx=0.6900 $ury=0.6050 $lvl=2
*|S (VSS!:47 0.6900 0.8200) // $llx=0.6900 $lly=0.8200 $urx=0.6900 $ury=0.8200 $lvl=2
*|S (VSS!:48 11.0400 0.0000) // $llx=11.0400 $lly=0.0000 $urx=11.0400 $ury=0.0000 $lvl=1
*|S (VSS!:49 8.9700 0.0000) // $llx=8.9700 $lly=0.0000 $urx=8.9700 $ury=0.0000 $lvl=1
*|S (VSS!:50 3.6800 0.0000) // $llx=3.6800 $lly=0.0000 $urx=3.6800 $ury=0.0000 $lvl=1
*|S (VSS!:51 0.0000 0.0000) // $llx=0.0000 $lly=0.0000 $urx=0.0000 $ury=0.0000 $lvl=1
ReF169 VSS!:48 VSS!:49 0.646875 $metal1  $L=2.07 $W=0.400000 $SI_W=0.4 $TYPE=10 $DIR=0 $LLX=8.970000 $LLY=-0.199500 $URX=11.040000 $URY=0.200000 $lvl=1
ReF170 VSS!:49 VSS! 1.295313 $metal1  $L=4.145 $W=0.400000 $SI_W=0.4 $TYPE=10 $DIR=0 $LLX=4.825000 $LLY=-0.199500 $URX=8.970000 $URY=0.200000 $lvl=1
ReF171 VSS! VSS!:50 0.357812 $metal1  $L=1.145 $W=0.400000 $SI_W=0.4 $TYPE=10 $DIR=0 $LLX=3.680000 $LLY=-0.199500 $URX=4.825000 $URY=0.200000 $lvl=1
ReF172 VSS!:50 VSS!:51 1.150000 $metal1  $L=3.68 $W=0.400000 $SI_W=0.4 $TYPE=10 $DIR=0 $LLX=0.000000 $LLY=-0.199500 $URX=3.680000 $URY=0.200000 $lvl=1
RfF173 VSS!:1 VSS!:3 28.611765 $li  $L=0.38 $W=0.170000 $SI_W=0.17 $TYPE=10 $DIR=1 $LLX=10.305000 $LLY=0.775000 $URX=10.475000 $URY=1.155000 $lvl=2
RfF174 VSS!:3 VSS!:4 55.328377 $li  $L=0.77475 $W=0.170000 $SI_W=0.17 $TYPE=10 $DIR=1 $LLX=10.305000 $LLY=0.000000 $URX=10.475000 $URY=0.775000 $lvl=2
RfF175 VSS!:4 VSS!:5 44.031998 $li  $L=0.86 $W=0.250000 $SI_W=0.25 $TYPE=10 $DIR=0 $LLX=9.530000 $LLY=-0.124500 $URX=10.390000 $URY=0.125000 $lvl=2
RfF176 VSS!:5 VSS!:6 28.684799 $li  $L=0.56025 $W=0.250000 $SI_W=0.25 $TYPE=10 $DIR=0 $LLX=8.970000 $LLY=-0.124500 $URX=9.530000 $URY=0.125000 $lvl=2
RfF177 VSS!:6 VSS!:9 15.347200 $li  $L=0.29975 $W=0.250000 $SI_W=0.25 $TYPE=10 $DIR=0 $LLX=8.670000 $LLY=-0.124500 $URX=8.970000 $URY=0.125000 $lvl=2
RfF178 VSS!:9 VSS!:10 44.031998 $li  $L=0.86 $W=0.250000 $SI_W=0.25 $TYPE=10 $DIR=0 $LLX=7.810000 $LLY=-0.124500 $URX=8.670000 $URY=0.125000 $lvl=2
RfF179 VSS!:10 VSS!:11 44.031998 $li  $L=0.86 $W=0.250000 $SI_W=0.25 $TYPE=10 $DIR=0 $LLX=6.950000 $LLY=-0.124500 $URX=7.810000 $URY=0.125000 $lvl=2
RfF180 VSS!:11 VSS!:12 48.639999 $li  $L=0.95 $W=0.250000 $SI_W=0.25 $TYPE=10 $DIR=0 $LLX=6.000000 $LLY=-0.124500 $URX=6.950000 $URY=0.125000 $lvl=2
RfF181 VSS!:12 VSS!:13 44.031998 $li  $L=0.86 $W=0.250000 $SI_W=0.25 $TYPE=10 $DIR=0 $LLX=5.140000 $LLY=-0.124500 $URX=6.000000 $URY=0.125000 $lvl=2
RfF182 VSS!:13 VSS!:14 74.764801 $li  $L=1.46025 $W=0.250000 $SI_W=0.25 $TYPE=10 $DIR=0 $LLX=3.680000 $LLY=-0.124500 $URX=5.140000 $URY=0.125000 $lvl=2
RfF183 VSS!:14 VSS!:16 16.371201 $li  $L=0.31975 $W=0.250000 $SI_W=0.25 $TYPE=10 $DIR=0 $LLX=3.360000 $LLY=-0.124500 $URX=3.680000 $URY=0.125000 $lvl=2
RfF184 VSS!:16 VSS!:17 48.639999 $li  $L=0.95 $W=0.250000 $SI_W=0.25 $TYPE=10 $DIR=0 $LLX=2.410000 $LLY=-0.124500 $URX=3.360000 $URY=0.125000 $lvl=2
RfF185 VSS!:17 VSS!:18 88.063995 $li  $L=1.72 $W=0.250000 $SI_W=0.25 $TYPE=10 $DIR=0 $LLX=0.690000 $LLY=-0.124500 $URX=2.410000 $URY=0.125000 $lvl=2