*
*|DSPF 1.5
*
*|DATE "Wed Jan  8 21:50:08 2025"
*|VENDOR "Cadence Design Systems"
*|PROGRAM "Cadence Quantus Extraction"
*|VERSION "22.1.0-p089 Linux 64 bit - (Thu Jan 19 11:47:08 PST 2023)"
*|DESIGN DLY1X4_HS
*|DIVIDER /
*|DELIMITER :
*|DeviceFingerDelim "@"
*|BUSBIT []
*|GLOBAL_TEMPERATURE 25
*|OPERATING_TEMPERATURE 25

** *VIA_COVERAGE_CODES
** *index FF FS FP FU SF SS SP SU PF PS PP PU UF US UP UU X_by_Y
** * "FF" stands for Full landing and Full coverage
** *0 0 0 0 0 0 0 0 0 0 0 0 0 0 0 0 0
** *1 0 0 0 0 0 0 0 0 0 0 0 0 0 0 0 1 1x1
** *2 0 0 0 0 0 0 0 0 0 0 0 0 0 0 1 0 1x1
** *3 0 0 0 0 0 0 0 0 0 0 0 0 0 1 0 0 1x1
** *4 0 0 0 0 0 0 0 0 0 0 0 0 1 0 0 0 1x1
** *5 0 0 0 0 0 0 0 0 0 0 0 1 0 0 0 0 1x1
** *6 0 0 0 0 0 0 0 0 0 0 1 0 0 0 0 0 1x1
** *7 0 0 0 0 0 0 0 0 0 1 0 0 0 0 0 0 1x1
** *8 0 0 0 0 0 0 0 0 1 0 0 0 0 0 0 0 1x1
** *9 0 0 0 0 0 0 0 1 0 0 0 0 0 0 0 0 1x1
** *10 0 0 0 0 0 0 1 0 0 0 0 0 0 0 0 0 1x1
** *11 0 0 0 0 0 1 0 0 0 0 0 0 0 0 0 0 1x1
** *12 0 0 0 0 1 0 0 0 0 0 0 0 0 0 0 0 1x1
** *13 0 0 0 1 0 0 0 0 0 0 0 0 0 0 0 0 1x1
** *14 0 0 1 0 0 0 0 0 0 0 0 0 0 0 0 0 1x1
** *15 0 1 0 0 0 0 0 0 0 0 0 0 0 0 0 0 1x1
** *16 1 0 0 0 0 0 0 0 0 0 0 0 0 0 0 0 1x1

** *RESISTOR_TYPES
** *1 SHORTING_ELEMENT
** *2 PRES_NG
** *3 PRES_PG
** *4 PRES_NF
** *5 PRES_PF
** *6 TCN_NDIFF
** *7 TCN_PDIFF
** *8 TCN_NFIELD
** *9 TCN_PFIELD
** *10 QUALITY_EXTRACTED
** *11 GCNLAND
** *12 TCNLAND
** *13 DUMMY
** *14 RSD
** *15 BRIDGE

** *RESISTOR_CURRENT_DIRECTION
** *0 HORIZONTAL
** *1 VERTICAL
** *2 45 DEGREE

** QRC_TECH_DIR /vols/wfo_devel/projects/reference_SKY130/tech/sky130_release_0.0.4/quantus/extraction/typical 
** HIERARCHICAL_SPLIT_PINS_DELIMITER '%'
** caps2d version: 10
*
.SUBCKT  DLY1X4_HS A Y
*
*Net Section
*
*|GROUND_NET VSS!
*
*LAYER_MAP
*0 none
*1 metal1
*2 li
*3 poly
*4 diff
*5 licon_diff
*6 mcon
*7 licon
*8 FOX

*|NET n1 2.24116e-15
*|I (Mmp2:d Mmp2 d X 0 1.4105 3.3550) // $llx=1.4105 $lly=3.3550 $urx=1.4105 $ury=3.3550 $lvl=4
*|I (Mmp3:g Mmp3 g X 0 2.2850 3.0150) // $llx=2.2850 $lly=3.0150 $urx=2.2850 $ury=3.0150 $lvl=3
*|I (Mmn2:d Mmn2 d X 0 1.4105 0.6075) // $llx=1.4105 $lly=0.6075 $urx=1.4105 $ury=0.6075 $lvl=4
*|I (Mmn3:g Mmn3 g X 0 2.2850 0.7750) // $llx=2.2850 $lly=0.7750 $urx=2.2850 $ury=0.7750 $lvl=3
*|S (n1 2.2850 0.7750) // $llx=2.2850 $lly=0.7750 $urx=2.2850 $ury=0.7750 $lvl=3
*|S (n1:8 2.2850 3.8950) // $llx=2.2850 $lly=3.8950 $urx=2.2850 $ury=3.8950 $lvl=3
*|S (n1:9 2.2250 1.5945) // $llx=2.2250 $lly=1.5945 $urx=2.2250 $ury=1.5945 $lvl=3
*|S (n1:10 2.2250 1.4325) // $llx=2.2250 $lly=1.4325 $urx=2.2250 $ury=1.4325 $lvl=3
*|S (n1:11 2.2250 1.2650) // $llx=2.2250 $lly=1.2650 $urx=2.2250 $ury=1.2650 $lvl=3
*|S (n1:12 2.2850 0.2450) // $llx=2.2850 $lly=0.2450 $urx=2.2850 $ury=0.2450 $lvl=3
*|S (n1:13 1.5500 3.7450) // $llx=1.5500 $lly=3.7450 $urx=1.5500 $ury=3.7450 $lvl=2
*|S (n1:15 1.5500 3.3550) // $llx=1.5500 $lly=3.3550 $urx=1.5500 $ury=3.3550 $lvl=2
*|S (n1:16 1.5500 3.1900) // $llx=1.5500 $lly=3.1900 $urx=1.5500 $ury=3.1900 $lvl=2
*|S (n1:17 1.5500 2.9650) // $llx=1.5500 $lly=2.9650 $urx=1.5500 $ury=2.9650 $lvl=2
*|S (n1:18 1.6150 0.5600) // $llx=1.6150 $lly=0.5600 $urx=1.6150 $ury=0.5600 $lvl=2
*|S (n1:20 1.5500 0.6050) // $llx=1.5500 $lly=0.6050 $urx=1.5500 $ury=0.6050 $lvl=2
*|S (n1:21 2.3900 1.4350) // $llx=2.3900 $lly=1.4350 $urx=2.3900 $ury=1.4350 $lvl=2
*|S (n1:22 2.2250 1.4325) // $llx=2.2250 $lly=1.4325 $urx=2.2250 $ury=1.4325 $lvl=2
*|S (n1:23 1.6150 1.4350) // $llx=1.6150 $lly=1.4350 $urx=1.6150 $ury=1.4350 $lvl=2
*|S (n1:24 1.4500 1.4350) // $llx=1.4500 $lly=1.4350 $urx=1.4500 $ury=1.4350 $lvl=2
*|S (n1:25 1.5500 3.3350) // $llx=1.5500 $lly=3.3350 $urx=1.5500 $ury=3.3350 $lvl=1
*|S (n1:26 1.5500 3.1900) // $llx=1.5500 $lly=3.1900 $urx=1.5500 $ury=3.1900 $lvl=1
*|S (n1:27 1.5500 3.0450) // $llx=1.5500 $lly=3.0450 $urx=1.5500 $ury=3.0450 $lvl=1
*|S (n1:28 1.6150 1.5795) // $llx=1.6150 $lly=1.5795 $urx=1.6150 $ury=1.5795 $lvl=1
*|S (n1:29 1.6150 1.4350) // $llx=1.6150 $lly=1.4350 $urx=1.6150 $ury=1.4350 $lvl=1
*|S (n1:30 1.6150 1.2900) // $llx=1.6150 $lly=1.2900 $urx=1.6150 $ury=1.2900 $lvl=1
*|S (n1:31 1.6150 0.7045) // $llx=1.6150 $lly=0.7045 $urx=1.6150 $ury=0.7045 $lvl=1
*|S (n1:32 1.6150 0.5600) // $llx=1.6150 $lly=0.5600 $urx=1.6150 $ury=0.5600 $lvl=1
*|S (n1:33 1.6150 0.4150) // $llx=1.6150 $lly=0.4150 $urx=1.6150 $ury=0.4150 $lvl=1
CF1 Mmn2:d VSS! 8.33366e-19 $lvl=4
CF2 Mmp2:d VSS! 1.62008e-18 $lvl=4
CF3 n1:8 VSS! 2.62692e-18 $lvl=3
CF4 n1:12 VSS! 2.08412e-18 $lvl=3
CF5 n1:30 VSS! 4.41914e-18 $lvl=1
CF6 n1:29 VSS! 7.31035e-18 $lvl=1
CF7 n1:26 VSS! 5.34347e-18 $lvl=1
CF8 n1:33 VSS! 4.83948e-18 $lvl=1
CF9 n1:21 VSS! 6.16534e-18 $lvl=2
CF10 n1:24 VSS! 9.36077e-18 $lvl=2
CF11 n1:20 VSS! 8.09851e-18 $lvl=2
CF12 n1:13 VSS! 2.95551e-18 $lvl=2
CF13 n1:17 VSS! 2.79151e-18 $lvl=2
CF14 n1:16 VSS! 3.44736e-18 $lvl=2
CF15 n1:18 VSS! 7.74805e-19 $lvl=2
CF16 n1:23 VSS! 2.60655e-18 $lvl=2
CF17 n1:10 VSS! 1.88408e-17 $lvl=3
CF18 n1:26 n5 9.25013e-19 $lvl1=1 $lvl2=2
CF19 n1:13 Mmp2:s 9.13764e-19 $lvl1=2 $lvl2=4
CF20 n1:24 n4:3 6.62187e-19 $lvl1=2 $lvl2=2
CF21 n1:24 n4 6.474e-19 $lvl1=2 $lvl2=2
CF22 n1:33 n4:3 6.35011e-19 $lvl1=1 $lvl2=2
CF23 n1:20 Mmn2:s 4.94802e-19 $lvl1=2 $lvl2=4
CF24 n1:18 n4:4 4.37026e-19 $lvl1=2 $lvl2=2
CF25 n1:33 n4 3.4128e-19 $lvl1=1 $lvl2=2
CF26 n1:18 n4 3.26981e-19 $lvl1=2 $lvl2=2
CF27 Mmn2:d n4:3 2.38597e-19 $lvl1=4 $lvl2=2
CF28 n1:30 n4 2.30812e-19 $lvl1=1 $lvl2=2
CF29 n1:18 n4:3 1.69003e-18 $lvl1=2 $lvl2=2
CF30 n1:26 n5:4 1.74729e-18 $lvl1=1 $lvl2=2
CF31 n1:16 n5:4 1.72917e-18 $lvl1=2 $lvl2=2
CF32 n1:20 n4 4.34408e-18 $lvl1=2 $lvl2=2
CF33 n1:13 n5:3 2.4859e-17 $lvl1=2 $lvl2=2
CF34 n1:13 n5:4 2.51246e-18 $lvl1=2 $lvl2=2
CF35 n1:13 n5 8.58417e-18 $lvl1=2 $lvl2=2
CF36 n1:17 n5:3 2.6989e-18 $lvl1=2 $lvl2=2
CF37 n1:17 n5:4 3.42851e-18 $lvl1=2 $lvl2=2
CF38 n1:26 n5:3 3.24663e-18 $lvl1=1 $lvl2=2
CF39 n1:20 n4:3 2.04389e-17 $lvl1=2 $lvl2=2
CF40 n1:20 n4:4 3.61131e-18 $lvl1=2 $lvl2=2
CF41 n1:16 n5:3 3.73049e-18 $lvl1=2 $lvl2=2
CF42 n1:10 n2:47 9.72086e-18 $lvl1=3 $lvl2=2
CF43 n1:24 n2:47 8.40773e-18 $lvl1=2 $lvl2=2
CF44 n1:26 n2:42 7.16536e-18 $lvl1=1 $lvl2=2
CF45 n1:17 n2:42 6.52031e-18 $lvl1=2 $lvl2=2
CF46 Mmp2:d n2:42 6.09073e-18 $lvl1=4 $lvl2=2
CF47 n1:30 n2:57 5.42636e-18 $lvl1=1 $lvl2=1
CF48 n1:10 n2:54 5.0402e-18 $lvl1=3 $lvl2=2
CF49 n1:29 n2:60 4.86054e-18 $lvl1=1 $lvl2=1
CF50 n1:13 Mmp3:d 4.80484e-18 $lvl1=2 $lvl2=4
CF51 n1:21 n2:53 4.53951e-18 $lvl1=2 $lvl2=2
CF52 n1:20 n2:50 4.09993e-18 $lvl1=2 $lvl2=2
CF53 n1:24 n2:54 4.04544e-18 $lvl1=2 $lvl2=2
CF54 Mmn2:d n2:47 3.71223e-18 $lvl1=4 $lvl2=2
CF55 n1:23 n2:57 3.62726e-18 $lvl1=2 $lvl2=1
CF56 n1:18 n2:50 3.56809e-18 $lvl1=2 $lvl2=2
CF57 n1:29 n2:53 3.45443e-18 $lvl1=1 $lvl2=2
CF58 n1:16 n2:42 3.23273e-18 $lvl1=2 $lvl2=2
CF59 n1:24 n2:57 3.21639e-18 $lvl1=2 $lvl2=1
CF60 n1:21 n2:60 3.18515e-18 $lvl1=2 $lvl2=1
CF61 n1:21 n2:52 2.9855e-18 $lvl1=2 $lvl2=2
CF62 n1:8 n2:54 2.64005e-18 $lvl1=3 $lvl2=2
CF63 n1:20 Mmn3:d 2.54728e-18 $lvl1=2 $lvl2=4
CF64 n1:10 n2:32 2.52918e-18 $lvl1=3 $lvl2=3
CF65 n1:29 n2:54 2.43665e-18 $lvl1=1 $lvl2=2
CF66 n1:33 n2:47 2.26387e-18 $lvl1=1 $lvl2=2
CF67 n1:20 n2:60 2.13785e-18 $lvl1=2 $lvl2=1
CF68 n1:10 n2 2.11631e-18 $lvl1=3 $lvl2=3
CF69 n1:16 n2:55 1.97724e-18 $lvl1=2 $lvl2=1
CF70 n1:13 n2:55 1.97222e-18 $lvl1=2 $lvl2=1
CF71 n1:24 n2:53 1.81917e-18 $lvl1=2 $lvl2=2
CF72 n1:18 n2:60 1.81109e-18 $lvl1=2 $lvl2=1
CF73 n1:10 n2:52 1.76893e-18 $lvl1=3 $lvl2=2
CF74 n1:10 Mmn3:d 1.7338e-18 $lvl1=3 $lvl2=4
CF75 n1:29 n2:55 1.60814e-18 $lvl1=1 $lvl2=1
CF76 n1:30 n2:47 1.5859e-18 $lvl1=1 $lvl2=2
CF77 n1:18 n2:47 1.57574e-18 $lvl1=2 $lvl2=2
CF78 n1:33 n2:57 1.41619e-18 $lvl1=1 $lvl2=1
CF79 n1:23 n2:47 1.28001e-18 $lvl1=2 $lvl2=2
CF80 n1:21 n2:32 1.27811e-18 $lvl1=2 $lvl2=3
CF81 n1:29 n2:46 1.26995e-18 $lvl1=1 $lvl2=2
CF82 n1:33 n2:50 1.26739e-18 $lvl1=1 $lvl2=2
CF83 n1:16 n2:43 1.14494e-18 $lvl1=2 $lvl2=2
CF84 n1:24 n2:60 1.06569e-18 $lvl1=2 $lvl2=1
CF85 n1:26 n2:46 1.06277e-18 $lvl1=1 $lvl2=2
CF86 n1:17 n2:55 1.05799e-18 $lvl1=2 $lvl2=1
CF87 n1:13 n2:43 9.40471e-19 $lvl1=2 $lvl2=2
CF88 n1:26 n2:43 9.26648e-19 $lvl1=1 $lvl2=2
CF89 n1:8 n2:32 9.19438e-19 $lvl1=3 $lvl2=3
CF90 n1:23 n2:60 8.97293e-19 $lvl1=2 $lvl2=1
CF91 n1:29 n2:42 8.84326e-19 $lvl1=1 $lvl2=2
CF92 n1:21 n2 7.07612e-19 $lvl1=2 $lvl2=3
CF93 n1:8 n2:52 6.97903e-19 $lvl1=3 $lvl2=2
CF94 n1:8 n2:46 6.28282e-19 $lvl1=3 $lvl2=2
CF95 n1:23 n2:53 6.25394e-19 $lvl1=2 $lvl2=2
CF96 n1:10 n2:53 6.07786e-19 $lvl1=3 $lvl2=2
CF97 n1:26 n2:55 5.10398e-17 $lvl1=1 $lvl2=1
CF98 n1:8 n2:42 2.5556e-16 $lvl1=3 $lvl2=2
CF99 n1:13 n2:42 4.52058e-17 $lvl1=2 $lvl2=2
CF100 n1:30 n2:60 1.41663e-17 $lvl1=1 $lvl2=1
CF101 n1:29 n2:57 5.96234e-17 $lvl1=1 $lvl2=1
CF102 n1:12 n2:47 1.29499e-16 $lvl1=3 $lvl2=2
CF103 n1:20 n2:47 3.32424e-17 $lvl1=2 $lvl2=2
CF104 n1:26 n2:57 1.78907e-17 $lvl1=1 $lvl2=1
CF105 n1:21 n2:54 1.00862e-17 $lvl1=2 $lvl2=2
CF106 n1:21 n2:47 1.54743e-17 $lvl1=2 $lvl2=2
CF107 n1:33 n2:60 3.8827e-17 $lvl1=1 $lvl2=1
CF108 n1:21 n2:57 1.2e-17 $lvl1=2 $lvl2=1
CF109 n1:21 VSS!:28 9.27415e-18 $lvl1=2 $lvl2=2
CF110 n1:12 VSS!:20 8.96815e-18 $lvl1=3 $lvl2=2
CF111 n1:30 VSS!:37 7.94813e-18 $lvl1=1 $lvl2=1
CF112 n1:20 VSS!:34 7.93849e-18 $lvl1=2 $lvl2=1
CF113 n1:10 VSS!:28 7.4091e-18 $lvl1=3 $lvl2=2
CF114 n1:26 VSS!:7 6.54836e-18 $lvl1=1 $lvl2=2
CF115 n1:18 VSS!:34 6.43064e-18 $lvl1=2 $lvl2=1
CF116 n1:29 VSS!:34 4.93166e-18 $lvl1=1 $lvl2=1
CF117 n1:26 VSS!:9 4.74485e-18 $lvl1=1 $lvl2=2
CF118 n1:23 VSS!:37 4.05318e-18 $lvl1=2 $lvl2=1
CF119 Mmn2:d VSS!:20 3.97456e-18 $lvl1=4 $lvl2=2
CF120 n1:20 VSS!:17 3.79132e-18 $lvl1=2 $lvl2=2
CF121 n1:24 VSS!:37 2.83956e-18 $lvl1=2 $lvl2=1
CF122 n1:29 VSS!:7 2.49779e-18 $lvl1=1 $lvl2=2
CF123 n1:17 VSS!:7 2.28893e-18 $lvl1=2 $lvl2=2
CF124 n1:13 VSS!:6 1.91711e-18 $lvl1=2 $lvl2=3
CF125 n1:20 VSS!:18 1.84941e-18 $lvl1=2 $lvl2=4
CF126 n1:17 VSS!:6 1.73434e-18 $lvl1=2 $lvl2=3
CF127 n1:29 VSS!:9 1.63962e-18 $lvl1=1 $lvl2=2
CF128 n1:18 VSS!:20 1.53037e-18 $lvl1=2 $lvl2=2
CF129 n1:33 VSS!:17 1.49144e-18 $lvl1=1 $lvl2=2
CF130 n1:24 VSS!:34 1.4498e-18 $lvl1=2 $lvl2=1
CF131 n1:18 VSS!:17 1.31553e-18 $lvl1=2 $lvl2=2
CF132 n1:33 VSS!:20 1.28532e-18 $lvl1=1 $lvl2=2
CF133 n1:23 VSS!:34 1.20964e-18 $lvl1=2 $lvl2=1
CF134 n1:17 VSS!:10 1.01194e-18 $lvl1=2 $lvl2=2
CF135 n1:10 Mmn4:s 9.88258e-19 $lvl1=3 $lvl2=4
CF136 n1:17 VSS!:4 9.83859e-19 $lvl1=2 $lvl2=3
CF137 n1:33 VSS!:37 9.69666e-19 $lvl1=1 $lvl2=1
CF138 n1:26 VSS!:34 8.75932e-19 $lvl1=1 $lvl2=1
CF139 n1:17 VSS!:9 8.33542e-19 $lvl1=2 $lvl2=2
CF140 n1:13 VSS!:7 6.98062e-19 $lvl1=2 $lvl2=2
CF141 n1:26 VSS!:6 6.87702e-19 $lvl1=1 $lvl2=3
CF142 n1:33 VSS!:35 5.69205e-19 $lvl1=1 $lvl2=1
CF143 n1:16 VSS!:7 5.61351e-19 $lvl1=2 $lvl2=2
CF144 n1:17 VSS!:39 5.54754e-19 $lvl1=2 $lvl2=1
CF145 n1:26 VSS!:10 5.48106e-19 $lvl1=1 $lvl2=2
CF146 n1:20 VSS!:20 2.47842e-17 $lvl1=2 $lvl2=2
CF147 n1:12 VSS!:28 1.25859e-16 $lvl1=3 $lvl2=2
CF148 n1:26 VSS!:38 1.41265e-17 $lvl1=1 $lvl2=1
CF149 n1:33 VSS!:34 1.07928e-16 $lvl1=1 $lvl2=1
CF150 n1:30 VSS!:34 2.86795e-17 $lvl1=1 $lvl2=1
CF151 n1:26 VSS!:39 2.68923e-17 $lvl1=1 $lvl2=1
CF152 n1:13 VSS!:4 1.32532e-16 $lvl1=2 $lvl2=3
CF153 n1:29 VSS!:37 1.19921e-16 $lvl1=1 $lvl2=1
CF154 n1:26 VSS!:37 3.37367e-17 $lvl1=1 $lvl2=1
ReF165 n1:25 n1:26 0.078804 $metal1  $L=0.145 $W=0.230000 $SI_W=0.23 $TYPE=10 $DIR=1 $LLX=1.435000 $LLY=3.190000 $URX=1.665000 $URY=3.335000 $lvl=1
ReF166 n1:26 n1:27 0.078668 $metal1  $L=0.1445 $W=0.230000 $SI_W=0.23 $TYPE=10 $DIR=1 $LLX=1.435000 $LLY=3.045000 $URX=1.665000 $URY=3.190000 $lvl=1
ReF167 n1:27 n1:28 1.077478 $metal1  $L=1.465 $W=0.165000 $SI_W=0.165 $TYPE=10 $DIR=1 $LLX=1.502500 $LLY=1.580000 $URX=1.667500 $URY=3.045000 $lvl=1
ReF168 n1:28 n1:29 0.087429 $metal1  $L=0.1445 $W=0.230000 $SI_W=0.23 $TYPE=10 $DIR=1 $LLX=1.500000 $LLY=1.435000 $URX=1.730000 $URY=1.579500 $lvl=1
ReF169 n1:29 n1:30 0.078668 $metal1  $L=0.1445 $W=0.230000 $SI_W=0.23 $TYPE=10 $DIR=1 $LLX=1.500000 $LLY=1.290500 $URX=1.730000 $URY=1.435000 $lvl=1
ReF170 n1:30 n1:31 0.430419 $metal1  $L=0.585 $W=0.170000 $SI_W=0.17 $TYPE=10 $DIR=1 $LLX=1.500000 $LLY=0.705000 $URX=1.670000 $URY=1.290000 $lvl=1
ReF171 n1:31 n1:32 0.087429 $metal1  $L=0.1445 $W=0.230000 $SI_W=0.23 $TYPE=10 $DIR=1 $LLX=1.500000 $LLY=0.560000 $URX=1.730000 $URY=0.704500 $lvl=1
ReF172 n1:32 n1:33 0.078804 $metal1  $L=0.145 $W=0.230000 $SI_W=0.23 $TYPE=10 $DIR=1 $LLX=1.500000 $LLY=0.415000 $URX=1.730000 $URY=0.560000 $lvl=1
RfF173 n1:13 n1:15 29.364706 $li  $L=0.39 $W=0.170000 $SI_W=0.17 $TYPE=10 $DIR=1 $LLX=1.465000 $LLY=3.355000 $URX=1.635000 $URY=3.745000 $lvl=2
RfF174 n1:15 n1:16 12.423529 $li  $L=0.165 $W=0.170000 $SI_W=0.17 $TYPE=10 $DIR=1 $LLX=1.465000 $LLY=3.190000 $URX=1.635000 $URY=3.355000 $lvl=2
RfF175 n1:16 n1:17 16.941177 $li  $L=0.225 $W=0.170000 $SI_W=0.17 $TYPE=10 $DIR=1 $LLX=1.465000 $LLY=2.965000 $URX=1.635000 $URY=3.190000 $lvl=2
RfF176 n1:18 n1:20 1.957647 $li  $L=0.065 $W=0.425000 $SI_W=0.425 $TYPE=10 $DIR=0 $LLX=1.550000 $LLY=0.395000 $URX=1.615000 $URY=0.820000 $lvl=2
RfF177 n1:21 n1:22 12.423529 $li  $L=0.165 $W=0.170000 $SI_W=0.17 $TYPE=10 $DIR=0 $LLX=2.225000 $LLY=1.350000 $URX=2.390000 $URY=1.520000 $lvl=2
RfF178 n1:22 n1:23 45.929413 $li  $L=0.61 $W=0.170000 $SI_W=0.17 $TYPE=10 $DIR=0 $LLX=1.615000 $LLY=1.350000 $URX=2.225000 $URY=1.520000 $lvl=2
RfF179 n1:23 n1:24 12.423529 $li  $L=0.165 $W=0.170000 $SI_W=0.17 $TYPE=10 $DIR=0 $LLX=1.450000 $LLY=1.350000 $URX=1.615000 $URY=1.520000 $lvl=2
RgF180 n1:8 Mmp3:g 282.773346 $poly  $L=0.88 $W=0.150000 $SI_W=0.15 $TYPE=10 $DIR=1 $LLX=2.210000 $LLY=3.015000 $URX=2.360000 $URY=3.895000 $lvl=3
RgF181 Mmp3:g n1:9 456.337952 $poly  $L=1.42 $W=0.150000 $SI_W=0.15 $TYPE=10 $DIR=1 $LLX=2.210000 $LLY=1.594500 $URX=2.360000 $URY=3.014500 $lvl=3
RgF182 n1:9 n1:10 38.411682 $poly  $L=0.162 $W=0.270000 $SI_W=0.27 $TYPE=10 $DIR=1 $LLX=2.090000 $LLY=1.432500 $URX=2.360000 $URY=1.594500 $lvl=3
RgF183 n1:10 n1:11 29.857224 $poly  $L=0.167 $W=0.270000 $SI_W=0.27 $TYPE=10 $DIR=1 $LLX=2.090000 $LLY=1.265000 $URX=2.360000 $URY=1.432000 $lvl=3
RgF184 n1:11 n1 157.497955 $poly  $L=0.49 $W=0.150000 $SI_W=0.15 $TYPE=10 $DIR=1 $LLX=2.210000 $LLY=0.775000 $URX=2.360000 $URY=1.265000 $lvl=3
RgF185 n1 n1:12 170.306671 $poly  $L=0.53 $W=0.150000 $SI_W=0.15 $TYPE=10 $DIR=1 $LLX=2.210000 $LLY=0.245000 $URX=2.360000 $URY=0.775000 $lvl=3
RhF186 Mmn2:d n1:20 15.000000 $licon_diff  $L=0.17 $W=0.17 $A=0.0289 $VC=0 $SAVL=0 $SAVC=0 $SI_A=0.0289 $COVER_DIR=0 $LLX=0.000000 $LLY=0.000000 $URX=0.170000 $URY=0.170000 $lvl=5
Rh_2_F187 Mmp2:d n1:15 7.500000 $licon_diff  $A=0.0578 $VC=0 $SAVL=0 $SAVC=0 $SI_A=0.0578 $COVER_DIR=0 $LLX=0.000000 $LLY=0.000000 $URX=-0.057800 $URY=-2.000000 $lvl=5
RjF188 n1:16 n1:26 152.000000 $mcon  $L=0.17 $W=0.17 $A=0.0289 $VC=0 $SAVL=0 $SAVC=0 $SI_A=0.0289 $COVER_DIR=0 $LLX=0.000000 $LLY=0.000000 $URX=0.170000 $URY=0.170000 $lvl=6
RjF189 n1:23 n1:29 152.000000 $mcon  $L=0.17 $W=0.17 $A=0.0289 $VC=0 $SAVL=0 $SAVC=0 $SI_A=0.0289 $COVER_DIR=0 $LLX=0.000000 $LLY=0.000000 $URX=0.170000 $URY=0.170000 $lvl=6
RjF190 n1:18 n1:32 152.000000 $mcon  $L=0.17 $W=0.17 $A=0.0289 $VC=0 $SAVL=0 $SAVC=0 $SI_A=0.0289 $COVER_DIR=0 $LLX=0.000000 $LLY=0.000000 $URX=0.170000 $URY=0.170000 $lvl=6
RiF191 n1:10 n1:22 15.000000 $licon  $L=0.17 $W=0.165 $A=0.02805 $VC=0 $SAVL=0 $SAVC=0 $SI_A=0.02805 $COVER_DIR=0 $LLX=0.000000 $LLY=0.000000 $URX=0.165000 $URY=0.170000 $lvl=7
RmwF192 Mmn3:g n1 0.001000 $poly $W=1000000 $SI_W=1000000 $TYPE=1 $DIR=0
*
*|NET VDD! 4.31695e-15
*|P (VDD! X 0 2.4150 4.1450) // $llx=2.4150 $lly=4.1450 $urx=2.4150 $ury=4.1450 $lvl=1
*|I (Mmp2:b Mmp2 b X 0 1.3350 3.3550) // $llx=1.3350 $lly=3.3550 $urx=1.3350 $ury=3.3550 $lvl=8
*|I (Mmp4:s Mmp4 s X 0 2.6395 3.0150) // $llx=2.6395 $lly=3.0150 $urx=2.6395 $ury=3.0150 $lvl=4
*|I (Mmp4:b Mmp4 b X 0 2.7150 3.0150) // $llx=2.7150 $lly=3.0150 $urx=2.7150 $ury=3.0150 $lvl=8
*|I (Mmp4@1:s Mmp4@1 s X 0 3.2205 3.0150) // $llx=3.2205 $lly=3.0150 $urx=3.2205 $ury=3.0150 $lvl=4
*|I (Mmp4@1:b Mmp4@1 b X 0 3.1450 3.0150) // $llx=3.1450 $lly=3.0150 $urx=3.1450 $ury=3.0150 $lvl=8
*|I (Mmp4@2:s Mmp4@2 s X 0 3.4995 3.0150) // $llx=3.4995 $lly=3.0150 $urx=3.4995 $ury=3.0150 $lvl=4
*|I (Mmp4@2:b Mmp4@2 b X 0 3.5750 3.0150) // $llx=3.5750 $lly=3.0150 $urx=3.5750 $ury=3.0150 $lvl=8
*|I (Mmp4@3:s Mmp4@3 s X 0 4.0805 3.0150) // $llx=4.0805 $lly=3.0150 $urx=4.0805 $ury=3.0150 $lvl=4
*|I (Mmp4@3:b Mmp4@3 b X 0 4.0050 3.0150) // $llx=4.0050 $lly=3.0150 $urx=4.0050 $ury=3.0150 $lvl=8
*|I (Mmp3:s Mmp3 s X 0 2.3605 3.0150) // $llx=2.3605 $lly=3.0150 $urx=2.3605 $ury=3.0150 $lvl=4
*|I (Mmp3:b Mmp3 b X 0 2.2850 3.0150) // $llx=2.2850 $lly=3.0150 $urx=2.2850 $ury=3.0150 $lvl=8
*|I (Mmp0:s Mmp0 s X 0 0.5505 3.3550) // $llx=0.5505 $lly=3.3550 $urx=0.5505 $ury=3.3550 $lvl=4
*|I (Mmp0:b Mmp0 b X 0 0.4750 3.3550) // $llx=0.4750 $lly=3.3550 $urx=0.4750 $ury=3.3550 $lvl=8
*|I (Mmp1:s Mmp1 s X 0 0.8295 3.3550) // $llx=0.8295 $lly=3.3550 $urx=0.8295 $ury=3.3550 $lvl=4
*|I (Mmp1:b Mmp1 b X 0 0.9050 3.3550) // $llx=0.9050 $lly=3.3550 $urx=0.9050 $ury=3.3550 $lvl=8
*|I (Mmn2:g Mmn2 g X 0 1.3350 0.6075) // $llx=1.3350 $lly=0.6075 $urx=1.3350 $ury=0.6075 $lvl=3
*|S (VDD!:5 1.3350 0.2450) // $llx=1.3350 $lly=0.2450 $urx=1.3350 $ury=0.2450 $lvl=3
*|S (VDD!:6 1.3350 1.8150) // $llx=1.3350 $lly=1.8150 $urx=1.3350 $ury=1.8150 $lvl=3
*|S (VDD!:7 1.4250 1.9500) // $llx=1.4250 $lly=1.9500 $urx=1.4250 $ury=1.9500 $lvl=3
*|S (VDD!:8 1.5900 1.9500) // $llx=1.5900 $lly=1.9500 $urx=1.5900 $ury=1.9500 $lvl=2
*|S (VDD!:9 1.4250 1.9500) // $llx=1.4250 $lly=1.9500 $urx=1.4250 $ury=1.9500 $lvl=2
*|S (VDD!:10 0.8400 1.9500) // $llx=0.8400 $lly=1.9500 $urx=0.8400 $ury=1.9500 $lvl=2
*|S (VDD!:11 0.6750 1.9500) // $llx=0.6750 $lly=1.9500 $urx=0.6750 $ury=1.9500 $lvl=2
*|S (VDD!:12 0.6900 2.9650) // $llx=0.6900 $lly=2.9650 $urx=0.6900 $ury=2.9650 $lvl=2
*|S (VDD!:14 0.6900 3.3550) // $llx=0.6900 $lly=3.3550 $urx=0.6900 $ury=3.3550 $lvl=2
*|S (VDD!:15 0.6900 4.1400) // $llx=0.6900 $lly=4.1400 $urx=0.6900 $ury=4.1400 $lvl=2
*|S (VDD!:16 0.0000 4.1400) // $llx=0.0000 $lly=4.1400 $urx=0.0000 $ury=4.1400 $lvl=2
*|S (VDD!:17 2.3000 4.1400) // $llx=2.3000 $lly=4.1400 $urx=2.3000 $ury=4.1400 $lvl=2
*|S (VDD!:18 2.3000 4.1400) // $llx=2.3000 $lly=4.1400 $urx=2.3000 $ury=4.1400 $lvl=4
*|S (VDD!:20 2.5000 4.1400) // $llx=2.5000 $lly=4.1400 $urx=2.5000 $ury=4.1400 $lvl=2
*|S (VDD!:22 2.5000 3.0150) // $llx=2.5000 $lly=3.0150 $urx=2.5000 $ury=3.0150 $lvl=2
*|S (VDD!:23 2.5000 2.2850) // $llx=2.5000 $lly=2.2850 $urx=2.5000 $ury=2.2850 $lvl=2
*|S (VDD!:24 3.3600 4.1400) // $llx=3.3600 $lly=4.1400 $urx=3.3600 $ury=4.1400 $lvl=2
*|S (VDD!:26 3.3600 3.0150) // $llx=3.3600 $lly=3.0150 $urx=3.3600 $ury=3.0150 $lvl=2
*|S (VDD!:27 3.3600 2.2850) // $llx=3.3600 $lly=2.2850 $urx=3.3600 $ury=2.2850 $lvl=2
*|S (VDD!:28 4.2200 4.1400) // $llx=4.2200 $lly=4.1400 $urx=4.2200 $ury=4.1400 $lvl=2
*|S (VDD!:30 4.2200 3.0150) // $llx=4.2200 $lly=3.0150 $urx=4.2200 $ury=3.0150 $lvl=2
*|S (VDD!:31 4.2200 2.2850) // $llx=4.2200 $lly=2.2850 $urx=4.2200 $ury=2.2850 $lvl=2
*|S (VDD!:32 4.5995 4.1400) // $llx=4.5995 $lly=4.1400 $urx=4.5995 $ury=4.1400 $lvl=2
*|S (VDD!:33 4.6000 4.1400) // $llx=4.6000 $lly=4.1400 $urx=4.6000 $ury=4.1400 $lvl=1
*|S (VDD!:34 2.3000 4.1400) // $llx=2.3000 $lly=4.1400 $urx=2.3000 $ury=4.1400 $lvl=1
*|S (VDD!:35 0.8400 4.1400) // $llx=0.8400 $lly=4.1400 $urx=0.8400 $ury=4.1400 $lvl=1
*|S (VDD!:36 0.0000 4.1400) // $llx=0.0000 $lly=4.1400 $urx=0.0000 $ury=4.1400 $lvl=1
*|S (VDD!:37 0.8400 2.0945) // $llx=0.8400 $lly=2.0945 $urx=0.8400 $ury=2.0945 $lvl=1
*|S (VDD!:38 0.8400 1.9500) // $llx=0.8400 $lly=1.9500 $urx=0.8400 $ury=1.9500 $lvl=1
CC1 Mmp0:s VSS! 1.24096e-18 $lvl=4
CC2 Mmp4@3:s VSS! 2.29574e-18 $lvl=4
CC3 Mmp4@1:s VSS! 8.31239e-19 $lvl=4
CC4 Mmp4:s VSS! 1.51922e-18 $lvl=4
CC5 VDD!:5 VSS! 2.05187e-18 $lvl=3
CC6 VDD!:38 VSS! 7.18017e-18 $lvl=1
CC7 VDD!:36 VSS! 6.77675e-18 $lvl=1
CC8 VDD!:35 VSS! 1.21685e-17 $lvl=1
CC9 VDD!:26 VSS! 4.26044e-18 $lvl=2
CC10 VDD!:14 VSS! 3.43884e-18 $lvl=2
CC11 VDD!:23 VSS! 4.77258e-18 $lvl=2
CC12 VDD!:31 VSS! 9.77704e-18 $lvl=2
CC13 VDD!:32 VSS! 2.54362e-18 $lvl=2
CC14 VDD!:28 VSS! 2.78392e-18 $lvl=2
CC15 VDD!:24 VSS! 2.95175e-18 $lvl=2
CC16 VDD!:15 VSS! 2.46809e-18 $lvl=2
CC17 VDD!:16 VSS! 1.26182e-18 $lvl=2
CC18 VDD!:8 VSS! 6.08302e-18 $lvl=2
CC19 VDD!:11 VSS! 7.71653e-18 $lvl=2
CC20 VDD!:18 VSS! 2.72789e-18 $lvl=4
CC21 VDD!:10 VSS! 3.04533e-18 $lvl=2
CC22 VDD!:17 VSS! 2.7208e-18 $lvl=2
CC23 VDD!:7 VSS! 1.88541e-17 $lvl=3
CC24 VDD! VSS! 5.82398e-18 $lvl=1
CC25 VDD!:17 n5 1.2353e-18 $lvl1=2 $lvl2=2
CC26 VDD!:14 Mmp2:s 9.90303e-19 $lvl1=2 $lvl2=4
CC27 VDD! n5:3 9.49193e-19 $lvl1=1 $lvl2=2
CC28 VDD! n5:4 7.83198e-19 $lvl1=1 $lvl2=2
CC29 VDD!:17 n5:3 3.7229e-19 $lvl1=2 $lvl2=2
CC30 VDD!:11 n5:4 2.22423e-19 $lvl1=2 $lvl2=2
CC31 VDD!:5 n4 6.24075e-19 $lvl1=3 $lvl2=2
CC32 VDD!:38 n5:4 2.92991e-18 $lvl1=1 $lvl2=2
CC33 VDD!:35 n5:3 8.57415e-18 $lvl1=1 $lvl2=2
CC34 VDD!:5 n4:3 6.51038e-17 $lvl1=3 $lvl2=2
CC35 VDD!:15 n5:3 2.24901e-18 $lvl1=2 $lvl2=2
CC36 VDD!:15 n5 6.38541e-18 $lvl1=2 $lvl2=2
CC37 VDD!:35 n5 5.97105e-18 $lvl1=1 $lvl2=2
CC38 VDD!:35 n5:4 2.04489e-18 $lvl1=1 $lvl2=2
CC39 VDD!:14 n5:3 2.87354e-17 $lvl1=2 $lvl2=2
CC40 VDD!:14 n5:4 6.98187e-18 $lvl1=2 $lvl2=2
CC41 VDD!:14 n5 8.4535e-18 $lvl1=2 $lvl2=2
CC42 VDD!:38 n5:3 1.64441e-18 $lvl1=1 $lvl2=2
CC43 VDD!:15 Mmp2:s 1.89966e-18 $lvl1=2 $lvl2=4
CC44 VDD!:23 n2:54 9.01916e-18 $lvl1=2 $lvl2=2
CC45 VDD! n2:57 8.41749e-18 $lvl1=1 $lvl2=1
CC46 VDD!:23 n2:52 8.18535e-18 $lvl1=2 $lvl2=2
CC47 VDD! n2:55 7.19002e-18 $lvl1=1 $lvl2=1
CC48 VDD!:24 n2:37 7.1177e-18 $lvl1=2 $lvl2=3
CC49 VDD!:35 n2:42 6.99327e-18 $lvl1=1 $lvl2=2
CC50 VDD!:15 n2:40 6.84669e-18 $lvl1=2 $lvl2=3
CC51 VDD!:23 n2:46 6.65829e-18 $lvl1=2 $lvl2=2
CC52 VDD!:23 n2:57 6.31458e-18 $lvl1=2 $lvl2=1
CC53 VDD!:24 n2:39 6.16808e-18 $lvl1=2 $lvl2=3
CC54 VDD!:28 n2:29 6.15413e-18 $lvl1=2 $lvl2=3
CC55 VDD!:8 n2:54 5.82394e-18 $lvl1=2 $lvl2=2
CC56 VDD! n2:60 5.6908e-18 $lvl1=1 $lvl2=1
CC57 VDD!:31 n2:32 5.62416e-18 $lvl1=2 $lvl2=3
CC58 VDD!:31 n2:52 5.45064e-18 $lvl1=2 $lvl2=2
CC59 VDD! n2:52 3.72736e-18 $lvl1=1 $lvl2=2
CC60 VDD!:35 n2:57 3.13495e-18 $lvl1=1 $lvl2=1
CC61 VDD!:23 n2:32 2.80226e-18 $lvl1=2 $lvl2=3
CC62 VDD!:24 n2:29 2.73105e-18 $lvl1=2 $lvl2=3
CC63 VDD!:15 Mmp3:d 2.53548e-18 $lvl1=2 $lvl2=4
CC64 VDD!:17 n2:42 2.52137e-18 $lvl1=2 $lvl2=2
CC65 VDD!:7 n2:54 2.393e-18 $lvl1=3 $lvl2=2
CC66 VDD!:23 n2:43 2.26663e-18 $lvl1=2 $lvl2=2
CC67 VDD!:15 n2:39 2.20853e-18 $lvl1=2 $lvl2=3
CC68 VDD!:8 n2:53 2.123e-18 $lvl1=2 $lvl2=2
CC69 VDD!:18 n2:42 1.96684e-18 $lvl1=4 $lvl2=2
CC70 VDD!:7 n2:42 1.84763e-18 $lvl1=3 $lvl2=2
CC71 Mmp4@1:s n2:32 1.70014e-18 $lvl1=4 $lvl2=3
CC72 VDD!:23 n2:53 1.598e-18 $lvl1=2 $lvl2=2
CC73 VDD!:15 n2:55 1.49123e-18 $lvl1=2 $lvl2=1
CC74 VDD!:5 n2:47 1.47823e-18 $lvl1=3 $lvl2=2
CC75 VDD! n2:54 1.41291e-18 $lvl1=1 $lvl2=2
CC76 VDD!:8 n2:57 1.3473e-18 $lvl1=2 $lvl2=1
CC77 Mmp4:s n2:42 1.30117e-18 $lvl1=4 $lvl2=2
CC78 Mmp4@3:s n2:32 1.05452e-18 $lvl1=4 $lvl2=3
CC79 VDD!:38 n2:57 9.91244e-19 $lvl1=1 $lvl2=1
CC80 VDD!:15 n2:42 2.5881e-17 $lvl1=2 $lvl2=2
CC81 VDD!:23 n2:42 9.46597e-17 $lvl1=2 $lvl2=2
CC82 VDD!:26 n2:32 1.2721e-17 $lvl1=2 $lvl2=3
CC83 VDD!:35 n2:55 2.16992e-17 $lvl1=1 $lvl2=1
CC84 VDD! n2:32 1.0492e-17 $lvl1=1 $lvl2=3
CC85 VDD!:23 n2:40 2.49776e-16 $lvl1=2 $lvl2=3
CC86 VDD!:26 n2:39 2.56481e-16 $lvl1=2 $lvl2=3
CC87 VDD! n2:42 2.06363e-17 $lvl1=1 $lvl2=2
CC88 VDD!:23 n2:55 1.33253e-17 $lvl1=2 $lvl2=1
CC89 VDD!:26 n2:52 1.35801e-17 $lvl1=2 $lvl2=2
CC90 VDD!:26 n2:37 2.54304e-16 $lvl1=2 $lvl2=3
CC91 VDD!:31 n2:29 2.55887e-16 $lvl1=2 $lvl2=3
CC92 VDD!:15 n1:8 9.13432e-18 $lvl1=2 $lvl2=3
CC93 VDD!:8 n1:29 9.05171e-18 $lvl1=2 $lvl2=1
CC94 VDD!:35 n1:13 8.90781e-18 $lvl1=1 $lvl2=2
CC95 VDD! n1:26 7.94361e-18 $lvl1=1 $lvl2=1
CC96 VDD!:38 n1:26 7.06298e-18 $lvl1=1 $lvl2=1
CC97 VDD!:8 n1:24 6.39671e-18 $lvl1=2 $lvl2=2
CC98 VDD!:7 n1:24 5.78974e-18 $lvl1=3 $lvl2=2
CC99 VDD! n1:29 4.51168e-18 $lvl1=1 $lvl2=1
CC100 VDD! n1:33 3.59274e-18 $lvl1=1 $lvl2=1
CC101 VDD!:17 n1:13 3.2496e-18 $lvl1=2 $lvl2=2
CC102 VDD!:38 n1:29 1.98655e-18 $lvl1=1 $lvl2=1
CC103 VDD!:15 Mmp2:d 1.8832e-18 $lvl1=2 $lvl2=4
CC104 VDD!:18 n1:13 1.87674e-18 $lvl1=4 $lvl2=2
CC105 VDD!:8 n1:23 1.75654e-18 $lvl1=2 $lvl2=2
CC106 VDD!:35 n1:16 1.46555e-18 $lvl1=1 $lvl2=2
CC107 VDD!:7 n1:10 1.45328e-18 $lvl1=3 $lvl2=3
CC108 VDD!:15 n1:26 1.43016e-18 $lvl1=2 $lvl2=1
CC109 VDD! n1:30 1.33747e-18 $lvl1=1 $lvl2=1
CC110 VDD!:14 n1:13 1.28582e-18 $lvl1=2 $lvl2=2
CC111 VDD!:35 n1:29 1.17901e-18 $lvl1=1 $lvl2=1
CC112 VDD!:17 n1:26 1.09241e-18 $lvl1=2 $lvl2=1
CC113 VDD!:5 n1:24 1.00914e-18 $lvl1=3 $lvl2=2
CC114 VDD!:8 n1:26 1.00387e-18 $lvl1=2 $lvl2=1
CC115 VDD!:11 n1:24 8.51922e-19 $lvl1=2 $lvl2=2
CC116 VDD! n1:10 8.23146e-19 $lvl1=1 $lvl2=3
CC117 VDD!:14 n1:26 7.46757e-19 $lvl1=2 $lvl2=1
CC118 VDD!:36 n1:26 6.79269e-19 $lvl1=1 $lvl2=1
CC119 VDD!:8 n1:21 6.72401e-19 $lvl1=2 $lvl2=2
CC120 VDD!:23 n1:26 6.69093e-19 $lvl1=2 $lvl2=1
CC121 VDD!:7 n1:29 5.80525e-19 $lvl1=3 $lvl2=1
CC122 VDD!:11 n1:29 5.71033e-19 $lvl1=2 $lvl2=1
CC123 VDD!:7 n1:8 5.23644e-19 $lvl1=3 $lvl2=3
CC124 VDD!:7 n1:21 5.22057e-19 $lvl1=3 $lvl2=2
CC125 VDD!:7 n1:23 5.0329e-19 $lvl1=3 $lvl2=2
CC126 VDD! n1:13 1.13679e-17 $lvl1=1 $lvl2=2
CC127 VDD!:23 n1:8 2.51047e-16 $lvl1=2 $lvl2=3
CC128 VDD!:35 n1:26 3.07447e-17 $lvl1=1 $lvl2=1
CC129 VDD!:15 n1:13 2.61521e-17 $lvl1=2 $lvl2=2
CC130 VDD!:5 n1:20 6.70941e-17 $lvl1=3 $lvl2=2
CC131 VDD!:11 n0:9 6.05901e-18 $lvl1=2 $lvl2=3
CC132 VDD!:14 n0:16 6.04182e-18 $lvl1=2 $lvl2=2
CC133 VDD!:35 n0:12 5.84814e-18 $lvl1=1 $lvl2=2
CC134 VDD! n0:16 5.13188e-18 $lvl1=1 $lvl2=2
CC135 VDD!:11 n0:25 4.11823e-18 $lvl1=2 $lvl2=1
CC136 VDD!:14 n0:15 3.73902e-18 $lvl1=2 $lvl2=2
CC137 VDD!:10 n0:25 3.70075e-18 $lvl1=2 $lvl2=1
CC138 VDD!:7 n0:9 3.68473e-18 $lvl1=3 $lvl2=3
CC139 VDD!:11 n0:24 3.29142e-18 $lvl1=2 $lvl2=2
CC140 VDD!:10 n0:21 3.27673e-18 $lvl1=2 $lvl2=2
CC141 VDD!:18 n0:12 3.27517e-18 $lvl1=4 $lvl2=2
CC142 VDD!:8 n0:21 2.59439e-18 $lvl1=2 $lvl2=2
CC143 VDD! n0:20 2.5939e-18 $lvl1=1 $lvl2=2
CC144 VDD! n0:23 2.48753e-18 $lvl1=1 $lvl2=2
CC145 VDD!:35 n0:25 2.44583e-18 $lvl1=1 $lvl2=1
CC146 VDD! n0:9 2.44295e-18 $lvl1=1 $lvl2=3
CC147 VDD! n0:15 1.90525e-18 $lvl1=1 $lvl2=2
CC148 VDD!:16 n0:31 1.87468e-18 $lvl1=2 $lvl2=1
CC149 VDD!:17 n0:12 1.82984e-18 $lvl1=2 $lvl2=2
CC150 VDD!:11 n0:31 1.6202e-18 $lvl1=2 $lvl2=1
CC151 VDD!:7 n0:21 1.51452e-18 $lvl1=3 $lvl2=2
CC152 VDD!:8 n0:9 1.45878e-18 $lvl1=2 $lvl2=3
CC153 VDD!:10 n0:24 1.35853e-18 $lvl1=2 $lvl2=2
CC154 VDD!:38 n0:21 1.30004e-18 $lvl1=1 $lvl2=2
CC155 VDD!:15 Mmp0:d 1.26873e-18 $lvl1=2 $lvl2=4
CC156 VDD!:36 n0:25 1.24456e-18 $lvl1=1 $lvl2=1
CC157 VDD!:5 n0:9 1.16366e-18 $lvl1=3 $lvl2=3
CC158 VDD!:38 n0:16 1.16325e-18 $lvl1=1 $lvl2=2
CC159 VDD!:38 n0:24 9.63965e-19 $lvl1=1 $lvl2=2
CC160 VDD! n0:21 9.37477e-19 $lvl1=1 $lvl2=2
CC161 VDD!:15 n0:31 9.32095e-19 $lvl1=2 $lvl2=1
CC162 VDD!:14 Mmp0:d 8.74948e-19 $lvl1=2 $lvl2=4
CC163 VDD!:35 n0:15 8.63139e-19 $lvl1=1 $lvl2=2
CC164 VDD!:10 n0:9 8.07754e-19 $lvl1=2 $lvl2=3
CC165 VDD!:10 n0:31 7.6979e-19 $lvl1=2 $lvl2=1
CC166 VDD!:38 n0:12 7.64381e-19 $lvl1=1 $lvl2=2
CC167 VDD!:35 n0:28 7.07333e-19 $lvl1=1 $lvl2=1
CC168 Mmp0:s n0:12 6.12345e-19 $lvl1=4 $lvl2=2
CC169 VDD!:14 n0:25 6.09331e-19 $lvl1=2 $lvl2=1
CC170 VDD!:11 n0:23 5.09857e-19 $lvl1=2 $lvl2=2
CC171 VDD!:38 n0:28 5.08408e-19 $lvl1=1 $lvl2=1
CC172 VDD!:17 n0:31 4.98589e-19 $lvl1=2 $lvl2=1
CC173 VDD!:38 n0:15 4.88752e-19 $lvl1=1 $lvl2=2
CC174 VDD!:36 n0:15 4.64447e-19 $lvl1=1 $lvl2=2
CC175 VDD!:10 n0:23 4.58045e-19 $lvl1=2 $lvl2=2
CC176 VDD!:11 n0:12 4.27355e-19 $lvl1=2 $lvl2=2
CC177 VDD!:38 n0:8 3.57031e-19 $lvl1=1 $lvl2=3
CC178 VDD!:36 n0:16 3.34559e-19 $lvl1=1 $lvl2=2
CC179 VDD!:11 n0:16 3.2858e-19 $lvl1=2 $lvl2=2
CC180 VDD!:38 n0:23 3.23928e-19 $lvl1=1 $lvl2=2
CC181 VDD!:16 Mmp0:d 3.1764e-19 $lvl1=2 $lvl2=4
CC182 VDD!:35 n0:16 3.082e-19 $lvl1=1 $lvl2=2
CC183 VDD!:5 n0:21 2.85134e-19 $lvl1=3 $lvl2=2
CC184 VDD!:11 n0:8 2.80875e-19 $lvl1=2 $lvl2=3
CC185 VDD!:16 n0:25 2.64311e-19 $lvl1=2 $lvl2=1
CC186 VDD!:7 n0:8 2.45425e-19 $lvl1=3 $lvl2=3
CC187 VDD!:38 n0:31 3.52552e-17 $lvl1=1 $lvl2=1
CC188 VDD!:11 n0:21 7.75999e-18 $lvl1=2 $lvl2=2
CC189 VDD!:15 n0:12 1.31584e-17 $lvl1=2 $lvl2=2
CC190 VDD!:14 n0:31 7.75188e-18 $lvl1=2 $lvl2=1
CC191 VDD!:36 n0:31 1.16063e-17 $lvl1=1 $lvl2=1
CC192 VDD!:15 n0:8 1.03697e-17 $lvl1=2 $lvl2=3
CC193 VDD! n0:24 1.07195e-17 $lvl1=1 $lvl2=2
CC194 VDD!:16 n0:12 1.15589e-17 $lvl1=2 $lvl2=2
CC195 VDD! n0:17 1.24735e-17 $lvl1=1 $lvl2=2
CC196 VDD! n0:12 3.61653e-17 $lvl1=1 $lvl2=2
CC197 VDD!:14 n0:8 1.3438e-16 $lvl1=2 $lvl2=3
CC198 VDD!:14 n0:12 4.70519e-17 $lvl1=2 $lvl2=2
CC199 VDD!:38 n0:25 3.13316e-17 $lvl1=1 $lvl2=1
CC200 VDD!:35 n0:31 3.3712e-17 $lvl1=1 $lvl2=1
CC201 VDD!:36 n0:12 7.59248e-18 $lvl1=1 $lvl2=2
CC202 VDD! n0:31 3.60198e-17 $lvl1=1 $lvl2=1
CC203 VDD! n0:28 1.83658e-17 $lvl1=1 $lvl2=1
CC204 VDD! n0:25 3.65521e-17 $lvl1=1 $lvl2=1
CC205 VDD!:38 VSS!:9 8.39789e-18 $lvl1=1 $lvl2=2
CC206 VDD!:5 VSS!:20 7.79773e-18 $lvl1=3 $lvl2=2
CC207 VDD!:10 VSS!:37 5.42836e-18 $lvl1=2 $lvl2=1
CC208 VDD!:11 VSS!:10 4.93651e-18 $lvl1=2 $lvl2=2
CC209 VDD!:38 VSS!:10 4.70211e-18 $lvl1=1 $lvl2=2
CC210 VDD!:35 VSS!:39 3.91084e-18 $lvl1=1 $lvl2=1
CC211 VDD!:8 VSS!:7 3.87586e-18 $lvl1=2 $lvl2=2
CC212 VDD!:11 VSS!:37 3.16878e-18 $lvl1=2 $lvl2=1
CC213 VDD! VSS!:37 3.1468e-18 $lvl1=1 $lvl2=1
CC214 VDD!:11 VSS!:9 3.09548e-18 $lvl1=2 $lvl2=2
CC215 VDD!:7 VSS!:7 2.76833e-18 $lvl1=3 $lvl2=2
CC216 VDD!:8 VSS!:10 2.65715e-18 $lvl1=2 $lvl2=2
CC217 VDD!:31 VSS!:11 2.59924e-18 $lvl1=2 $lvl2=2
CC218 VDD!:35 VSS!:11 2.57821e-18 $lvl1=1 $lvl2=2
CC219 VDD!:8 VSS!:6 2.48758e-18 $lvl1=2 $lvl2=3
CC220 VDD!:35 VSS!:34 2.46457e-18 $lvl1=1 $lvl2=1
CC221 VDD!:35 VSS!:37 2.34227e-18 $lvl1=1 $lvl2=1
CC222 VDD!:8 VSS!:9 2.27994e-18 $lvl1=2 $lvl2=2
CC223 VDD! VSS!:10 2.23405e-18 $lvl1=1 $lvl2=2
CC224 VDD!:11 VSS!:6 2.20367e-18 $lvl1=2 $lvl2=3
CC225 VDD!:7 VSS!:10 2.14595e-18 $lvl1=3 $lvl2=2
CC226 VDD!:35 Mmn4@3:s 1.62266e-18 $lvl1=1 $lvl2=4
CC227 VDD!:38 VSS!:34 1.51258e-18 $lvl1=1 $lvl2=1
CC228 VDD!:14 VSS!:4 1.46046e-18 $lvl1=2 $lvl2=3