*
*|DSPF 1.5
*
*|DATE "Wed Jan  8 21:53:25 2025"
*|VENDOR "Cadence Design Systems"
*|PROGRAM "Cadence Quantus Extraction"
*|VERSION "22.1.0-p089 Linux 64 bit - (Thu Jan 19 11:47:08 PST 2023)"
*|DESIGN DLY1X1_HS
*|DIVIDER /
*|DELIMITER :
*|DeviceFingerDelim "@"
*|BUSBIT []
*|GLOBAL_TEMPERATURE 25
*|OPERATING_TEMPERATURE 25

** *VIA_COVERAGE_CODES
** *index FF FS FP FU SF SS SP SU PF PS PP PU UF US UP UU X_by_Y
** * "FF" stands for Full landing and Full coverage
** *0 0 0 0 0 0 0 0 0 0 0 0 0 0 0 0 0
** *1 0 0 0 0 0 0 0 0 0 0 0 0 0 0 0 1 1x1
** *2 0 0 0 0 0 0 0 0 0 0 0 0 0 0 1 0 1x1
** *3 0 0 0 0 0 0 0 0 0 0 0 0 0 1 0 0 1x1
** *4 0 0 0 0 0 0 0 0 0 0 0 0 1 0 0 0 1x1
** *5 0 0 0 0 0 0 0 0 0 0 0 1 0 0 0 0 1x1
** *6 0 0 0 0 0 0 0 0 0 0 1 0 0 0 0 0 1x1
** *7 0 0 0 0 0 0 0 0 0 1 0 0 0 0 0 0 1x1
** *8 0 0 0 0 0 0 0 0 1 0 0 0 0 0 0 0 1x1
** *9 0 0 0 0 0 0 0 1 0 0 0 0 0 0 0 0 1x1
** *10 0 0 0 0 0 0 1 0 0 0 0 0 0 0 0 0 1x1
** *11 0 0 0 0 0 1 0 0 0 0 0 0 0 0 0 0 1x1
** *12 0 0 0 0 1 0 0 0 0 0 0 0 0 0 0 0 1x1
** *13 0 0 0 1 0 0 0 0 0 0 0 0 0 0 0 0 1x1
** *14 0 0 1 0 0 0 0 0 0 0 0 0 0 0 0 0 1x1
** *15 0 1 0 0 0 0 0 0 0 0 0 0 0 0 0 0 1x1
** *16 1 0 0 0 0 0 0 0 0 0 0 0 0 0 0 0 1x1

** *RESISTOR_TYPES
** *1 SHORTING_ELEMENT
** *2 PRES_NG
** *3 PRES_PG
** *4 PRES_NF
** *5 PRES_PF
** *6 TCN_NDIFF
** *7 TCN_PDIFF
** *8 TCN_NFIELD
** *9 TCN_PFIELD
** *10 QUALITY_EXTRACTED
** *11 GCNLAND
** *12 TCNLAND
** *13 DUMMY
** *14 RSD
** *15 BRIDGE

** *RESISTOR_CURRENT_DIRECTION
** *0 HORIZONTAL
** *1 VERTICAL
** *2 45 DEGREE

** QRC_TECH_DIR /vols/wfo_devel/projects/reference_SKY130/tech/sky130_release_0.0.4/quantus/extraction/typical 
** HIERARCHICAL_SPLIT_PINS_DELIMITER '%'
** caps2d version: 10
*
.SUBCKT  DLY1X1_HS A Y
*
*Net Section
*
*|GROUND_NET VSS!
*
*LAYER_MAP
*0 none
*1 metal1
*2 li
*3 poly
*4 diff
*5 licon_diff
*6 mcon
*7 licon
*8 FOX

*|NET n4 2.68369e-16
*|I (Mmn2:s Mmn2 s X 0 1.2595 0.6075) // $llx=1.2595 $lly=0.6075 $urx=1.2595 $ury=0.6075 $lvl=4
*|I (Mmn1:d Mmn1 d X 0 0.9805 0.6075) // $llx=0.9805 $lly=0.6075 $urx=0.9805 $ury=0.6075 $lvl=4
*|S (n4 1.1200 0.8195) // $llx=1.1200 $lly=0.8195 $urx=1.1200 $ury=0.8195 $lvl=2
*|S (n4:3 1.1200 0.6000) // $llx=1.1200 $lly=0.6000 $urx=1.1200 $ury=0.6000 $lvl=2
*|S (n4:4 1.1200 0.3950) // $llx=1.1200 $lly=0.3950 $urx=1.1200 $ury=0.3950 $lvl=2
CH1 Mmn2:s VSS! 1.14703e-18 $lvl=4
CH2 n4:3 VSS! 5.51493e-18 $lvl=2
CH3 n4:4 VSS! 1.23629e-18 $lvl=2
CH4 n4 VSS! 3.9763e-18 $lvl=2
CH5 n4:3 VSS!:15 1.32854e-18 $lvl1=2 $lvl2=2
CH6 n4:3 VSS!:16 8.05671e-19 $lvl1=2 $lvl2=4
CH7 n4 VSS!:26 7.47583e-19 $lvl1=2 $lvl2=1
CH8 n4:4 VSS!:18 1.1698e-17 $lvl1=2 $lvl2=2
CH9 n4:4 VSS!:15 2.13583e-18 $lvl1=2 $lvl2=2
CH10 n4:3 VSS!:26 3.93623e-18 $lvl1=2 $lvl2=1
CH11 n4:4 VSS!:22 3.74695e-18 $lvl1=2 $lvl2=2
CH12 n4:3 VSS!:18 1.04873e-17 $lvl1=2 $lvl2=2
CH13 n4:3 VSS!:22 2.24447e-17 $lvl1=2 $lvl2=2
CH14 Mmn2:s VSS!:18 1.35061e-18 $lvl1=4 $lvl2=2
CH15 n4:4 VSS!:26 2.49673e-18 $lvl1=2 $lvl2=1
CH16 n4 VSS!:22 5.29239e-18 $lvl1=2 $lvl2=2
RfH184 n4 n4:3 16.527060 $li  $L=0.2195 $W=0.170000 $SI_W=0.17 $TYPE=10 $DIR=1 $LLX=1.035000 $LLY=0.600000 $URX=1.205000 $URY=0.819500 $lvl=2
RfH185 n4:3 n4:4 15.435294 $li  $L=0.205 $W=0.170000 $SI_W=0.17 $TYPE=10 $DIR=1 $LLX=1.035000 $LLY=0.395000 $URX=1.205000 $URY=0.600000 $lvl=2
RhH186 Mmn2:s n4:3 15.000000 $licon_diff  $L=0.17 $W=0.17 $A=0.0289 $VC=0 $SAVL=0 $SAVC=0 $SI_A=0.0289 $COVER_DIR=0 $LLX=0.000000 $LLY=0.000000 $URX=0.170000 $URY=0.170000 $lvl=5
RmwH187 Mmn1:d Mmn2:s 0.001000 $diff $W=1000000 $SI_W=1000000 $TYPE=1 $DIR=0
*
*|NET n5 3.0153e-16
*|I (Mmp2:s Mmp2 s X 0 1.2595 3.3550) // $llx=1.2595 $lly=3.3550 $urx=1.2595 $ury=3.3550 $lvl=4
*|I (Mmp1:d Mmp1 d X 0 0.9805 3.3550) // $llx=0.9805 $lly=3.3550 $urx=0.9805 $ury=3.3550 $lvl=4
*|S (n5 1.1200 3.5495) // $llx=1.1200 $lly=3.5495 $urx=1.1200 $ury=3.5495 $lvl=2
*|S (n5:3 1.1200 3.2350) // $llx=1.1200 $lly=3.2350 $urx=1.1200 $ury=3.2350 $lvl=2
*|S (n5:4 1.1200 2.9250) // $llx=1.1200 $lly=2.9250 $urx=1.1200 $ury=2.9250 $lvl=2
CH17 Mmp2:s VSS! 6.37528e-19 $lvl=4
CH18 n5:3 VSS! 2.15987e-18 $lvl=2
CH19 n5:4 VSS! 2.33425e-18 $lvl=2
CH20 n5 VSS! 1.44098e-18 $lvl=2
CH21 n5 Mmp2:g 1.42639e-18 $lvl1=2 $lvl2=3
CH22 Mmp2:s VSS!:6 1.25864e-18 $lvl1=4 $lvl2=3
CH23 n5:3 VSS!:9 1.00401e-18 $lvl1=2 $lvl2=2
CH24 n5:3 VSS!:10 1.62174e-18 $lvl1=2 $lvl2=2
CH25 n5:4 VSS!:9 2.95574e-18 $lvl1=2 $lvl2=2
CH26 n5:4 VSS!:10 8.20498e-18 $lvl1=2 $lvl2=2
CH27 n5:3 Mmp2:g 6.7363e-17 $lvl1=2 $lvl2=3
CH28 n5:3 VSS!:6 2.74445e-18 $lvl1=2 $lvl2=3
CH29 n5:4 VSS!:6 3.15773e-18 $lvl1=2 $lvl2=3
RfH188 n5 n5:3 23.680000 $li  $L=0.3145 $W=0.170000 $SI_W=0.17 $TYPE=10 $DIR=1 $LLX=1.035000 $LLY=3.235000 $URX=1.205000 $URY=3.549500 $lvl=2
RfH189 n5:3 n5:4 23.341177 $li  $L=0.31 $W=0.170000 $SI_W=0.17 $TYPE=10 $DIR=1 $LLX=1.035000 $LLY=2.925000 $URX=1.205000 $URY=3.235000 $lvl=2
Rh_2_H190 Mmp2:s n5:3 15.000000 $licon_diff  $L=0.17 $W=0.17 $A=0.0289 $VC=0 $SAVL=0 $SAVC=0 $SI_A=0.0289 $COVER_DIR=0 $LLX=0.000000 $LLY=0.000000 $URX=0.170000 $URY=0.170000 $lvl=5
RmwH191 Mmp1:d Mmp2:s 0.001000 $diff $W=1000000 $SI_W=1000000 $TYPE=1 $DIR=0
*
*|NET n0 1.37002e-15
*|I (Mmp0:d Mmp0 d X 0 0.3995 3.3550) // $llx=0.3995 $lly=3.3550 $urx=0.3995 $ury=3.3550 $lvl=4
*|I (Mmp1:g Mmp1 g X 0 0.9050 3.3550) // $llx=0.9050 $lly=3.3550 $urx=0.9050 $ury=3.3550 $lvl=3
*|I (Mmn0:d Mmn0 d X 0 0.3995 0.6075) // $llx=0.3995 $lly=0.6075 $urx=0.3995 $ury=0.6075 $lvl=4
*|I (Mmn1:g Mmn1 g X 0 0.9050 0.6075) // $llx=0.9050 $lly=0.6075 $urx=0.9050 $ury=0.6075 $lvl=3
*|S (n0 0.9050 0.6075) // $llx=0.9050 $lly=0.6075 $urx=0.9050 $ury=0.6075 $lvl=3
*|S (n0:8 0.9050 3.8950) // $llx=0.9050 $lly=3.8950 $urx=0.9050 $ury=3.8950 $lvl=3
*|S (n0:9 0.9050 1.9450) // $llx=0.9050 $lly=1.9450 $urx=0.9050 $ury=1.9450 $lvl=3
*|S (n0:10 0.9050 1.7800) // $llx=0.9050 $lly=1.7800 $urx=0.9050 $ury=1.7800 $lvl=3
*|S (n0:11 0.9050 0.2450) // $llx=0.9050 $lly=0.2450 $urx=0.9050 $ury=0.2450 $lvl=3
*|S (n0:12 0.2600 3.7450) // $llx=0.2600 $lly=3.7450 $urx=0.2600 $ury=3.7450 $lvl=2
*|S (n0:14 0.2600 3.3550) // $llx=0.2600 $lly=3.3550 $urx=0.2600 $ury=3.3550 $lvl=2
*|S (n0:15 0.2600 3.0900) // $llx=0.2600 $lly=3.0900 $urx=0.2600 $ury=3.0900 $lvl=2
*|S (n0:16 0.2600 0.8200) // $llx=0.2600 $lly=0.8200 $urx=0.2600 $ury=0.8200 $lvl=2
*|S (n0:17 0.2600 0.6550) // $llx=0.2600 $lly=0.6550 $urx=0.2600 $ury=0.6550 $lvl=2
*|S (n0:19 0.2600 0.6050) // $llx=0.2600 $lly=0.6050 $urx=0.2600 $ury=0.6050 $lvl=2
*|S (n0:20 0.2600 0.3950) // $llx=0.2600 $lly=0.3950 $urx=0.2600 $ury=0.3950 $lvl=2
*|S (n0:21 1.0700 1.9450) // $llx=1.0700 $lly=1.9450 $urx=1.0700 $ury=1.9450 $lvl=2
*|S (n0:22 0.9050 1.9450) // $llx=0.9050 $lly=1.9450 $urx=0.9050 $ury=1.9450 $lvl=2
*|S (n0:23 0.2600 1.9450) // $llx=0.2600 $lly=1.9450 $urx=0.2600 $ury=1.9450 $lvl=2
*|S (n0:24 0.0950 1.9450) // $llx=0.0950 $lly=1.9450 $urx=0.0950 $ury=1.9450 $lvl=2
*|S (n0:25 0.2600 0.5100) // $llx=0.2600 $lly=0.5100 $urx=0.2600 $ury=0.5100 $lvl=1
*|S (n0:26 0.2325 0.5700) // $llx=0.2325 $lly=0.5700 $urx=0.2325 $ury=0.5700 $lvl=1
*|S (n0:27 0.2600 0.6550) // $llx=0.2600 $lly=0.6550 $urx=0.2600 $ury=0.6550 $lvl=1
*|S (n0:28 0.2325 0.7995) // $llx=0.2325 $lly=0.7995 $urx=0.2325 $ury=0.7995 $lvl=1
*|S (n0:29 0.2325 1.8000) // $llx=0.2325 $lly=1.8000 $urx=0.2325 $ury=1.8000 $lvl=1
*|S (n0:30 0.2600 1.9450) // $llx=0.2600 $lly=1.9450 $urx=0.2600 $ury=1.9450 $lvl=1
*|S (n0:31 0.2325 2.0895) // $llx=0.2325 $lly=2.0895 $urx=0.2325 $ury=2.0895 $lvl=1
*|S (n0:32 0.2325 2.9450) // $llx=0.2325 $lly=2.9450 $urx=0.2325 $ury=2.9450 $lvl=1
*|S (n0:33 0.2600 3.0900) // $llx=0.2600 $lly=3.0900 $urx=0.2600 $ury=3.0900 $lvl=1
CE1 Mmn0:d VSS! 8.12701e-19 $lvl=4
CE2 Mmp1:g VSS! 1.09229e-18 $lvl=3
CE3 Mmp0:d VSS! 9.59127e-19 $lvl=4
CE4 n0:33 VSS! 5.79101e-18 $lvl=1
CE5 n0:31 VSS! 8.23222e-18 $lvl=1
CE6 n0:27 VSS! 6.42445e-18 $lvl=1
CE7 n0:21 VSS! 3.42265e-18 $lvl=2
CE8 n0:24 VSS! 6.61408e-18 $lvl=2
CE9 n0:16 VSS! 1.01593e-17 $lvl=2
CE10 n0:20 VSS! 1.47823e-18 $lvl=2
CE11 n0:12 VSS! 3.26448e-18 $lvl=2
CE12 n0:17 VSS! 1.80234e-18 $lvl=2
CE13 n0:23 VSS! 1.50686e-18 $lvl=2
CE14 n0:15 VSS! 1.24229e-18 $lvl=2
CE15 n0:9 VSS! 1.88119e-17 $lvl=3
CE16 n0 VSS! 1.37837e-18 $lvl=3
CE17 Mmp1:g n5 1.44157e-18 $lvl1=3 $lvl2=2
CE18 Mmp1:g n5:4 9.25485e-19 $lvl1=3 $lvl2=2
CE19 n0:33 n5:3 3.86659e-19 $lvl1=1 $lvl2=2
CE20 n0:12 n5:4 3.76744e-19 $lvl1=2 $lvl2=2
CE21 n0:33 n5:4 3.4825e-19 $lvl1=1 $lvl2=2
CE22 n0:12 n5:3 3.24107e-19 $lvl1=2 $lvl2=2
CE23 n0:21 n5:4 2.16389e-19 $lvl1=2 $lvl2=2
CE24 n0:9 n5:4 2.15223e-19 $lvl1=3 $lvl2=2
CE25 n0:15 n5:3 1.84307e-19 $lvl1=2 $lvl2=2
CE26 Mmp1:g n5:3 6.80196e-17 $lvl1=3 $lvl2=2
CE27 n0:27 n4:3 6.65207e-19 $lvl1=1 $lvl2=2
CE28 n0 n4 5.12687e-19 $lvl1=3 $lvl2=2
CE29 n0 n4:4 4.51308e-19 $lvl1=3 $lvl2=2
CE30 n0:27 n4 3.76337e-19 $lvl1=1 $lvl2=2
CE31 n0:16 n4:3 1.90221e-19 $lvl1=2 $lvl2=2
CE32 n0:27 n4:4 1.63355e-19 $lvl1=1 $lvl2=2
CE33 n0 n4:3 6.36469e-17 $lvl1=3 $lvl2=2
CE34 n0:9 n1:25 4.52877e-18 $lvl1=3 $lvl2=2
CE35 n0:27 n1:28 1.66144e-18 $lvl1=1 $lvl2=1
CE36 Mmp1:g n1:13 1.5761e-18 $lvl1=3 $lvl2=2
CE37 n0:21 n1:24 1.38357e-18 $lvl1=2 $lvl2=2
CE38 n0:9 n1:24 1.29307e-18 $lvl1=3 $lvl2=2
CE39 n0:33 n1:34 1.05088e-18 $lvl1=1 $lvl2=1
CE40 n0:31 n1:32 7.54633e-19 $lvl1=1 $lvl2=1
CE41 n0:31 n1:28 7.37969e-19 $lvl1=1 $lvl2=1
CE42 n0:31 n1:34 6.49241e-19 $lvl1=1 $lvl2=1
CE43 n0:21 n1:32 6.36235e-19 $lvl1=2 $lvl2=1
CE44 n0:21 n1:25 1.29136e-17 $lvl1=2 $lvl2=2
CE45 n0:27 VSS!:22 6.33178e-18 $lvl1=1 $lvl2=2
CE46 n0:20 VSS!:18 5.89424e-18 $lvl1=2 $lvl2=2
CE47 n0:16 VSS!:18 5.86142e-18 $lvl1=2 $lvl2=2
CE48 n0:20 VSS!:22 5.35586e-18 $lvl1=2 $lvl2=2
CE49 n0:17 VSS!:22 4.91291e-18 $lvl1=2 $lvl2=2
CE50 n0:17 VSS!:26 4.14051e-18 $lvl1=2 $lvl2=1
CE51 n0:16 VSS!:19 4.11555e-18 $lvl1=2 $lvl2=2
CE52 n0:31 VSS!:26 3.87343e-18 $lvl1=1 $lvl2=1
CE53 n0:20 VSS!:26 3.56475e-18 $lvl1=2 $lvl2=1
CE54 n0:16 VSS!:26 3.39971e-18 $lvl1=2 $lvl2=1
CE55 n0:9 VSS!:6 2.65822e-18 $lvl1=3 $lvl2=3
CE56 n0:27 VSS!:19 2.65401e-18 $lvl1=1 $lvl2=2
CE57 Mmp1:g VSS!:6 2.47107e-18 $lvl1=3 $lvl2=3
CE58 n0:16 VSS!:16 1.99326e-18 $lvl1=2 $lvl2=4
CE59 n0:27 VSS!:18 1.79478e-18 $lvl1=1 $lvl2=2
CE60 Mmn0:d VSS!:18 1.40094e-18 $lvl1=4 $lvl2=2
CE61 n0:21 VSS!:10 1.38649e-18 $lvl1=2 $lvl2=2
CE62 n0:9 VSS!:10 1.2632e-18 $lvl1=3 $lvl2=2
CE63 n0:20 VSS!:15 1.2523e-18 $lvl1=2 $lvl2=2
CE64 n0:27 VSS!:15 1.13423e-18 $lvl1=1 $lvl2=2
CE65 n0:21 VSS!:6 1.09389e-18 $lvl1=2 $lvl2=3
CE66 n0:33 VSS!:26 9.99641e-19 $lvl1=1 $lvl2=1
CE67 n0:17 VSS!:18 8.61837e-19 $lvl1=2 $lvl2=2
CE68 n0:17 VSS!:19 6.79175e-19 $lvl1=2 $lvl2=2
CE69 n0:31 VSS!:29 5.93837e-19 $lvl1=1 $lvl2=1
CE70 n0:33 VSS!:29 5.64013e-19 $lvl1=1 $lvl2=1
CE71 n0:9 VSS!:9 5.56377e-19 $lvl1=3 $lvl2=2
CE72 n0:21 VSS!:9 5.36407e-19 $lvl1=2 $lvl2=2
CE73 Mmn0:d VSS!:19 5.27679e-19 $lvl1=4 $lvl2=2
CE74 n0:31 VSS!:10 4.56137e-19 $lvl1=1 $lvl2=2
CE75 n0:16 VSS!:15 4.10401e-19 $lvl1=2 $lvl2=2
CE76 n0:24 VSS!:10 4.08158e-19 $lvl1=2 $lvl2=2
CE77 Mmp1:g VSS!:10 4.05372e-19 $lvl1=3 $lvl2=2
CE78 n0:12 VSS!:6 4.01124e-19 $lvl1=2 $lvl2=3
CE79 n0:33 VSS!:10 3.80964e-19 $lvl1=1 $lvl2=2
CE80 n0:16 Mmn0:s 3.60331e-19 $lvl1=2 $lvl2=4
CE81 n0:31 VSS!:6 3.5988e-19 $lvl1=1 $lvl2=3
CE82 n0:12 VSS!:10 3.56268e-19 $lvl1=2 $lvl2=2
CE83 n0:17 VSS!:15 3.37171e-19 $lvl1=2 $lvl2=2
CE84 n0:27 VSS!:29 3.18261e-19 $lvl1=1 $lvl2=1
CE85 n0:31 VSS!:22 3.14263e-19 $lvl1=1 $lvl2=2
CE86 n0:16 VSS!:22 2.65295e-17 $lvl1=2 $lvl2=2
CE87 n0 VSS!:22 6.90723e-17 $lvl1=3 $lvl2=2
CE88 n0 VSS!:18 8.4542e-18 $lvl1=3 $lvl2=2
CE89 n0:20 VSS!:19 7.23803e-18 $lvl1=2 $lvl2=2
CE90 n0:27 VSS!:26 4.36118e-17 $lvl1=1 $lvl2=1
ReE98 n0:25 n0:26 0.032718 $metal1  $L=0.06 $W=0.230000 $SI_W=0.23 $TYPE=10 $DIR=1 $LLX=0.145000 $LLY=0.510000 $URX=0.375000 $URY=0.570000 $lvl=1
ReE99 n0:26 n0:27 0.041222 $metal1  $L=0.0845 $W=0.285000 $SI_W=0.285 $TYPE=10 $DIR=1 $LLX=0.090000 $LLY=0.570500 $URX=0.375000 $URY=0.655000 $lvl=1
ReE100 n0:27 n0:28 0.063487 $metal1  $L=0.1445 $W=0.285000 $SI_W=0.285 $TYPE=10 $DIR=1 $LLX=0.090000 $LLY=0.655000 $URX=0.375000 $URY=0.799500 $lvl=1
ReE101 n0:28 n0:29 0.735513 $metal1  $L=1 $W=0.170000 $SI_W=0.17 $TYPE=10 $DIR=1 $LLX=0.090000 $LLY=0.800000 $URX=0.260000 $URY=1.800000 $lvl=1
ReE102 n0:29 n0:30 0.083678 $metal1  $L=0.1445 $W=0.285000 $SI_W=0.285 $TYPE=10 $DIR=1 $LLX=0.090000 $LLY=1.800500 $URX=0.375000 $URY=1.945000 $lvl=1
ReE103 n0:30 n0:31 0.083678 $metal1  $L=0.1445 $W=0.285000 $SI_W=0.285 $TYPE=10 $DIR=1 $LLX=0.090000 $LLY=1.945000 $URX=0.375000 $URY=2.089500 $lvl=1
ReE104 n0:31 n0:32 0.628896 $metal1  $L=0.855 $W=0.170000 $SI_W=0.17 $TYPE=10 $DIR=1 $LLX=0.090000 $LLY=2.090000 $URX=0.260000 $URY=2.945000 $lvl=1
ReE105 n0:32 n0:33 0.083678 $metal1  $L=0.1445 $W=0.285000 $SI_W=0.285 $TYPE=10 $DIR=1 $LLX=0.090000 $LLY=2.945500 $URX=0.375000 $URY=3.090000 $lvl=1
RfE106 n0:12 n0:14 29.364706 $li  $L=0.39 $W=0.170000 $SI_W=0.17 $TYPE=10 $DIR=1 $LLX=0.175000 $LLY=3.355000 $URX=0.345000 $URY=3.745000 $lvl=2
RfE107 n0:14 n0:15 19.952942 $li  $L=0.265 $W=0.170000 $SI_W=0.17 $TYPE=10 $DIR=1 $LLX=0.175000 $LLY=3.090000 $URX=0.345000 $URY=3.355000 $lvl=2
RfE108 n0:16 n0:17 12.423529 $li  $L=0.165 $W=0.170000 $SI_W=0.17 $TYPE=10 $DIR=1 $LLX=0.175000 $LLY=0.655000 $URX=0.345000 $URY=0.820000 $lvl=2
RfE109 n0:17 n0:19 3.764706 $li  $L=0.05 $W=0.170000 $SI_W=0.17 $TYPE=10 $DIR=1 $LLX=0.175000 $LLY=0.605000 $URX=0.345000 $URY=0.655000 $lvl=2
RfE110 n0:19 n0:20 15.811765 $li  $L=0.21 $W=0.170000 $SI_W=0.17 $TYPE=10 $DIR=1 $LLX=0.175000 $LLY=0.395000 $URX=0.345000 $URY=0.605000 $lvl=2
RfE111 n0:21 n0:22 12.423529 $li  $L=0.165 $W=0.170000 $SI_W=0.17 $TYPE=10 $DIR=0 $LLX=0.905000 $LLY=1.860000 $URX=1.070000 $URY=2.030000 $lvl=2
RfE112 n0:22 n0:23 48.564705 $li  $L=0.645 $W=0.170000 $SI_W=0.17 $TYPE=10 $DIR=0 $LLX=0.260000 $LLY=1.860000 $URX=0.905000 $URY=2.030000 $lvl=2
RfE113 n0:23 n0:24 12.423529 $li  $L=0.165 $W=0.170000 $SI_W=0.17 $TYPE=10 $DIR=0 $LLX=0.095000 $LLY=1.860000 $URX=0.260000 $URY=2.030000 $lvl=2
RgE114 n0:8 Mmp1:g 173.519989 $poly  $L=0.54 $W=0.150000 $SI_W=0.15 $TYPE=10 $DIR=1 $LLX=0.830000 $LLY=3.355000 $URX=0.980000 $URY=3.895000 $lvl=3
RgE115 Mmp1:g n0:9 434.239075 $poly  $L=1.41 $W=0.150000 $SI_W=0.15 $TYPE=10 $DIR=1 $LLX=0.830000 $LLY=1.945000 $URX=0.980000 $URY=3.355000 $lvl=3
RgE116 n0:9 n0:10 34.134449 $poly  $L=0.1645 $W=0.270000 $SI_W=0.27 $TYPE=10 $DIR=1 $LLX=0.770000 $LLY=1.780500 $URX=1.040000 $URY=1.945000 $lvl=3
RgE117 n0:10 n0 376.807953 $poly  $L=1.1725 $W=0.150000 $SI_W=0.15 $TYPE=10 $DIR=1 $LLX=0.830000 $LLY=0.607500 $URX=0.980000 $URY=1.780000 $lvl=3
RgE118 n0 n0:11 116.483322 $poly  $L=0.3625 $W=0.150000 $SI_W=0.15 $TYPE=10 $DIR=1 $LLX=0.830000 $LLY=0.245000 $URX=0.980000 $URY=0.607500 $lvl=3
RhE119 Mmn0:d n0:19 15.000000 $licon_diff  $L=0.17 $W=0.17 $A=0.0289 $VC=0 $SAVL=0 $SAVC=0 $SI_A=0.0289 $COVER_DIR=0 $LLX=0.000000 $LLY=0.000000 $URX=0.170000 $URY=0.170000 $lvl=5
Rh_2_E120 Mmp0:d n0:14 7.500000 $licon_diff  $A=0.0578 $VC=0 $SAVL=0 $SAVC=0 $SI_A=0.0578 $COVER_DIR=0 $LLX=0.000000 $LLY=0.000000 $URX=-0.057800 $URY=-2.000000 $lvl=5
RjE121 n0:17 n0:27 152.000000 $mcon  $L=0.17 $W=0.17 $A=0.0289 $VC=0 $SAVL=0 $SAVC=0 $SI_A=0.0289 $COVER_DIR=0 $LLX=0.000000 $LLY=0.000000 $URX=0.170000 $URY=0.170000 $lvl=6
RjE122 n0:23 n0:30 152.000000 $mcon  $L=0.17 $W=0.17 $A=0.0289 $VC=0 $SAVL=0 $SAVC=0 $SI_A=0.0289 $COVER_DIR=0 $LLX=0.000000 $LLY=0.000000 $URX=0.170000 $URY=0.170000 $lvl=6
RjE123 n0:15 n0:33 152.000000 $mcon  $L=0.17 $W=0.17 $A=0.0289 $VC=0 $SAVL=0 $SAVC=0 $SI_A=0.0289 $COVER_DIR=0 $LLX=0.000000 $LLY=0.000000 $URX=0.170000 $URY=0.170000 $lvl=6
RiE124 n0:9 n0:22 15.000000 $licon  $L=0.17 $W=0.17 $A=0.0289 $VC=0 $SAVL=0 $SAVC=0 $SI_A=0.0289 $COVER_DIR=0 $LLX=0.000000 $LLY=0.000000 $URX=0.170000 $URY=0.170000 $lvl=7
RmwE125 Mmn1:g n0 0.001000 $poly $W=1000000 $SI_W=1000000 $TYPE=1 $DIR=0
*
*|NET Y 1.18056e-15
*|P (Y X 0 3.2350 2.0100) // $llx=3.2350 $lly=2.0100 $urx=3.2350 $ury=2.0100 $lvl=1
*|I (Mmp4:d Mmp4 d X 0 3.0405 3.0150) // $llx=3.0405 $lly=3.0150 $urx=3.0405 $ury=3.0150 $lvl=4
*|I (Mmn4:d Mmn4 d X 0 3.0405 0.7750) // $llx=3.0405 $lly=0.7750 $urx=3.0405 $ury=0.7750 $lvl=4
*|S (Y:1 3.1800 3.7450) // $llx=3.1800 $lly=3.7450 $urx=3.1800 $ury=3.7450 $lvl=2
*|S (Y:3 3.1800 3.0150) // $llx=3.1800 $lly=3.0150 $urx=3.1800 $ury=3.0150 $lvl=2
*|S (Y:4 3.1800 2.9450) // $llx=3.1800 $lly=2.9450 $urx=3.1800 $ury=2.9450 $lvl=2
*|S (Y:5 3.1800 2.2850) // $llx=3.1800 $lly=2.2850 $urx=3.1800 $ury=2.2850 $lvl=2
*|S (Y:6 3.1800 1.1550) // $llx=3.1800 $lly=1.1550 $urx=3.1800 $ury=1.1550 $lvl=2
*|S (Y:7 3.1800 0.8100) // $llx=3.1800 $lly=0.8100 $urx=3.1800 $ury=0.8100 $lvl=2
*|S (Y:9 3.1800 0.7750) // $llx=3.1800 $lly=0.7750 $urx=3.1800 $ury=0.7750 $lvl=2
*|S (Y:10 3.1800 0.3950) // $llx=3.1800 $lly=0.3950 $urx=3.1800 $ury=0.3950 $lvl=2
*|S (Y:11 3.1800 0.8100) // $llx=3.1800 $lly=0.8100 $urx=3.1800 $ury=0.8100 $lvl=1
*|S (Y:12 3.2075 0.6800) // $llx=3.2075 $lly=0.6800 $urx=3.2075 $ury=0.6800 $lvl=1
*|S (Y:13 3.1800 0.4850) // $llx=3.1800 $lly=0.4850 $urx=3.1800 $ury=0.4850 $lvl=1
*|S (Y:14 3.1800 2.9450) // $llx=3.1800 $lly=2.9450 $urx=3.1800 $ury=2.9450 $lvl=1
*|S (Y:15 3.2075 3.4500) // $llx=3.2075 $lly=3.4500 $urx=3.2075 $ury=3.4500 $lvl=1
CB1 Mmn4:d VSS! 6.16695e-19 $lvl=4
CB2 Mmp4:d VSS! 1.3177e-18 $lvl=4
CB3 Y:12 VSS! 8.26929e-18 $lvl=1
CB4 Y:15 VSS! 8.27324e-18 $lvl=1
CB5 Y:13 VSS! 2.93343e-17 $lvl=1
CB6 Y:6 VSS! 2.6923e-17 $lvl=2
CB7 Y:10 VSS! 3.71297e-18 $lvl=2
CB8 Y:1 VSS! 6.39913e-18 $lvl=2
CB9 Y:5 VSS! 3.03989e-18 $lvl=2
CB10 Y:7 VSS! 6.22574e-18 $lvl=2
CB11 Y:4 VSS! 1.89928e-18 $lvl=2
CB12 Y VSS! 2.69306e-17 $lvl=1
CB13 Y n2:31 5.73699e-18 $lvl1=1 $lvl2=1
CB14 Y:15 n2:30 5.60692e-18 $lvl1=1 $lvl2=1
CB15 Y n2:28 4.10168e-18 $lvl1=1 $lvl2=1
CB16 Y n2:9 3.37595e-18 $lvl1=1 $lvl2=3
CB17 Y n2:24 2.91869e-18 $lvl1=1 $lvl2=2
CB18 Y:7 n2:23 2.50442e-18 $lvl1=2 $lvl2=2
CB19 Mmn4:d n2:9 1.63355e-18 $lvl1=4 $lvl2=3
CB20 Y:13 n2:33 1.55062e-18 $lvl1=1 $lvl2=1
CB21 Y:15 n2:13 1.52601e-18 $lvl1=1 $lvl2=2
CB22 Y:5 n2:23 1.47114e-18 $lvl1=2 $lvl2=2
CB23 Y:1 n2:23 1.17336e-18 $lvl1=2 $lvl2=2
CB24 Y:1 n2:9 1.14974e-18 $lvl1=2 $lvl2=3
CB25 Y:12 n2:33 1.04849e-18 $lvl1=1 $lvl2=1
CB26 Y:15 n2:16 1.02344e-18 $lvl1=1 $lvl2=2
CB27 Y:5 n2:11 9.64075e-19 $lvl1=2 $lvl2=3
CB28 Y:4 n2:28 9.54212e-19 $lvl1=2 $lvl2=1
CB29 Y:4 n2:26 9.53855e-19 $lvl1=2 $lvl2=1
CB30 Y:1 n2:28 9.37272e-19 $lvl1=2 $lvl2=1
CB31 Y:15 n2:23 9.33491e-19 $lvl1=1 $lvl2=2
CB32 Y:7 n2:33 9.15298e-19 $lvl1=2 $lvl2=1
CB33 Y n2:26 9.04958e-19 $lvl1=1 $lvl2=1
CB34 Y:5 n2:9 8.11537e-19 $lvl1=2 $lvl2=3
CB35 Y:10 n2 7.91698e-19 $lvl1=2 $lvl2=3
CB36 Y n2:34 7.0177e-19 $lvl1=1 $lvl2=1
CB37 Y n2:18 6.61684e-19 $lvl1=1 $lvl2=2
CB38 Y n2:11 6.14066e-19 $lvl1=1 $lvl2=3
CB39 Y:6 n2:33 6.02366e-19 $lvl1=2 $lvl2=1
CB40 Y:5 n2:30 5.26973e-19 $lvl1=2 $lvl2=1
CB41 Y:1 n2:26 5.10802e-19 $lvl1=2 $lvl2=1
CB42 Y:15 n2:31 4.72288e-19 $lvl1=1 $lvl2=1
CB43 Y:4 n2:13 4.57968e-19 $lvl1=2 $lvl2=2
CB44 Y n2:17 4.30519e-19 $lvl1=1 $lvl2=2
CB45 Y:4 n2:30 4.30508e-19 $lvl1=2 $lvl2=1
CB46 Y:1 n2:30 4.26781e-19 $lvl1=2 $lvl2=1
CB47 Y:7 n2:9 4.20148e-19 $lvl1=2 $lvl2=3
CB48 Mmn4:d n2:23 4.20132e-19 $lvl1=4 $lvl2=2
CB49 Y:1 n2:13 4.13785e-19 $lvl1=2 $lvl2=2
CB50 Y:15 n2:9 3.69722e-19 $lvl1=1 $lvl2=3
CB51 Mmp4:d n2:9 3.67692e-19 $lvl1=4 $lvl2=3
CB52 Y:12 n2:31 3.48661e-19 $lvl1=1 $lvl2=1
CB53 Y:6 n2:30 3.17814e-19 $lvl1=2 $lvl2=1
CB54 Y:15 n2:33 3.03069e-19 $lvl1=1 $lvl2=1
CB55 Y:1 n2:16 2.92238e-19 $lvl1=2 $lvl2=2
CB56 Y:7 n2:30 2.85112e-19 $lvl1=2 $lvl2=1
CB57 Y:12 n2:34 2.7978e-19 $lvl1=1 $lvl2=1
CB58 Y:4 n2:16 2.62468e-19 $lvl1=2 $lvl2=2
CB59 Y:6 n2:31 2.535e-19 $lvl1=2 $lvl2=1
CB60 Y:15 n2:24 2.36238e-19 $lvl1=1 $lvl2=2
CB61 Y:7 n2:31 2.29272e-19 $lvl1=2 $lvl2=1
CB62 Y:7 n2:17 2.24999e-19 $lvl1=2 $lvl2=2
CB63 Y:13 n2:30 2.24804e-19 $lvl1=1 $lvl2=1
CB64 Y:12 n2:23 2.16293e-19 $lvl1=1 $lvl2=2
CB65 Y:12 n2:30 2.07422e-19 $lvl1=1 $lvl2=1
CB66 Y:15 n2:28 1.35842e-17 $lvl1=1 $lvl2=1
CB67 Y:15 n2:26 8.06232e-18 $lvl1=1 $lvl2=1
CB68 Y:6 n2 1.28816e-16 $lvl1=2 $lvl2=3
CB69 Y:1 n2:11 2.50686e-16 $lvl1=2 $lvl2=3
CB70 Y n2:33 6.75651e-18 $lvl1=1 $lvl2=1
CB71 Y n2:30 1.89588e-17 $lvl1=1 $lvl2=1
CB72 Y n2:23 2.28159e-17 $lvl1=1 $lvl2=2
CB73 Y:6 n2:23 1.28022e-17 $lvl1=2 $lvl2=2
CB74 Y:6 n2:9 7.41596e-18 $lvl1=2 $lvl2=3
CB75 Y n1:23 2.79957e-18 $lvl1=1 $lvl2=2
CB76 Y:15 n1:34 1.48494e-18 $lvl1=1 $lvl2=1
CB77 Y n1:32 7.84337e-19 $lvl1=1 $lvl2=1
CB78 Y n1:9 7.53263e-19 $lvl1=1 $lvl2=3
CB79 Y n1:28 7.39268e-19 $lvl1=1 $lvl2=1
CB80 Y:15 n1:23 7.18882e-19 $lvl1=1 $lvl2=2
CB81 Y:15 n1:32 6.75526e-19 $lvl1=1 $lvl2=1
CB82 Y:5 n1:23 5.87384e-19 $lvl1=2 $lvl2=2
CB83 Y n1:34 5.80284e-19 $lvl1=1 $lvl2=1
CB84 Y:10 VSS!:11 5.58021e-18 $lvl1=2 $lvl2=2
CB85 Y:6 VSS!:20 5.02128e-18 $lvl1=2 $lvl2=2
CB86 Y:10 VSS!:20 4.15165e-18 $lvl1=2 $lvl2=2
CB87 Y VSS!:26 4.02614e-18 $lvl1=1 $lvl2=1
CB88 Y:6 VSS!:16 2.59596e-18 $lvl1=2 $lvl2=4
CB89 Y VSS!:29 2.50099e-18 $lvl1=1 $lvl2=1
CB90 Y:15 VSS!:29 2.31959e-18 $lvl1=1 $lvl2=1
CB91 Y VSS!:20 2.01246e-18 $lvl1=1 $lvl2=2
CB92 Y:10 VSS!:15 1.93884e-18 $lvl1=2 $lvl2=2
CB93 Y:12 VSS!:11 1.34886e-18 $lvl1=1 $lvl2=2
CB94 Y:7 VSS!:20 1.28873e-18 $lvl1=2 $lvl2=2
CB95 Y:7 VSS!:18 1.23064e-18 $lvl1=2 $lvl2=2
CB96 Y:13 VSS!:11 1.21293e-18 $lvl1=1 $lvl2=2
CB97 Y VSS!:18 1.14217e-18 $lvl1=1 $lvl2=2
CB98 Y:15 VSS!:26 1.14104e-18 $lvl1=1 $lvl2=1
CB99 Y:13 VSS!:18 1.05499e-18 $lvl1=1 $lvl2=2
CB100 Mmn4:d VSS!:18 9.64075e-19 $lvl1=4 $lvl2=2
CB101 Y:13 VSS!:20 9.50425e-19 $lvl1=1 $lvl2=2
CB102 Y:6 Mmn3:s 8.64882e-19 $lvl1=2 $lvl2=4
CB103 Mmn4:d VSS!:11 7.80641e-19 $lvl1=4 $lvl2=2
CB104 Y:7 VSS!:15 7.78958e-19 $lvl1=2 $lvl2=2
CB105 Y:6 VSS!:15 7.27785e-19 $lvl1=2 $lvl2=2
CB106 Mmn4:d VSS!:20 6.91989e-19 $lvl1=4 $lvl2=2
CB107 Y:6 VSS!:18 8.9237e-18 $lvl1=2 $lvl2=2
CB108 Y:10 VSS!:18 9.89771e-18 $lvl1=2 $lvl2=2
CB109 Y:6 VSS!:11 4.73669e-17 $lvl1=2 $lvl2=2
CB110 Y:7 VSS!:11 6.99276e-18 $lvl1=2 $lvl2=2
CB111 Y VSS!:11 6.95725e-18 $lvl1=1 $lvl2=2
CB112 Y VDD!:23 5.42085e-18 $lvl1=1 $lvl2=2
CB113 Y:12 VDD! 4.34744e-18 $lvl1=1 $lvl2=1
CB114 Y:5 VDD! 4.00393e-18 $lvl1=2 $lvl2=1
CB115 Y VDD!:27 3.89603e-18 $lvl1=1 $lvl2=1
CB116 Y:1 VDD!:17 3.54887e-18 $lvl1=2 $lvl2=2
CB117 Y:13 VDD! 3.41412e-18 $lvl1=1 $lvl2=1
CB118 Y:4 VDD! 3.00596e-18 $lvl1=2 $lvl2=1
CB119 Y:1 VDD!:18 2.94014e-18 $lvl1=2 $lvl2=4
CB120 Mmp4:d VDD!:15 2.4284e-18 $lvl1=4 $lvl2=2
CB121 Y:4 VDD!:27 2.33403e-18 $lvl1=2 $lvl2=1
CB122 Y:15 VDD!:24 2.32271e-18 $lvl1=1 $lvl2=2
CB123 Y:15 VDD!:15 1.69345e-18 $lvl1=1 $lvl2=2
CB124 Y:7 VDD! 1.61694e-18 $lvl1=2 $lvl2=1
CB125 Y:15 VDD!:17 1.45786e-18 $lvl1=1 $lvl2=2
CB126 Y:10 VDD! 1.35495e-18 $lvl1=2 $lvl2=1
CB127 Mmp4:d VDD!:24 9.40743e-19 $lvl1=4 $lvl2=2
CB128 Y VDD!:31 6.7569e-19 $lvl1=1 $lvl2=1
CB129 Y:4 VDD!:24 6.11243e-19 $lvl1=2 $lvl2=2
CB130 Y VDD!:30 4.87841e-19 $lvl1=1 $lvl2=1
CB131 Y:15 VDD!:30 4.72437e-19 $lvl1=1 $lvl2=1
CB132 Y:1 Mmp3:s 4.63836e-19 $lvl1=2 $lvl2=4
CB133 Mmp4:d VDD!:23 4.30622e-19 $lvl1=4 $lvl2=2
CB134 Y:15 VDD!:29 4.26675e-19 $lvl1=1 $lvl2=1
CB135 Y:6 VDD! 1.43873e-17 $lvl1=2 $lvl2=1
CB136 Y:15 VDD!:27 3.53875e-17 $lvl1=1 $lvl2=1
CB137 Y:1 VDD!:15 2.02675e-17 $lvl1=2 $lvl2=2
CB138 Y:1 VDD! 4.36141e-17 $lvl1=2 $lvl2=1
CB139 Y:1 VDD!:27 1.20923e-17 $lvl1=2 $lvl2=1
CB140 Y:1 VDD!:24 1.02541e-17 $lvl1=2 $lvl2=2
CB141 Y:15 VDD! 3.90333e-17 $lvl1=1 $lvl2=1
CB142 Y VDD! 4.84327e-17 $lvl1=1 $lvl2=1
CB143 Y:15 VDD!:23 1.74165e-17 $lvl1=1 $lvl2=2
CB144 Y:5 VDD!:23 7.32394e-18 $lvl1=2 $lvl2=2
CB145 Y:1 VDD!:23 8.97443e-17 $lvl1=2 $lvl2=2
CB146 Y:4 VDD!:23 1.33915e-17 $lvl1=2 $lvl2=2
ReB14 Y:11 Y:12 0.057018 $metal1  $L=0.13 $W=0.285000 $SI_W=0.285 $TYPE=10 $DIR=1 $LLX=3.065000 $LLY=0.680000 $URX=3.350000 $URY=0.810000 $lvl=1
ReB15 Y:12 Y:13 0.105978 $metal1  $L=0.195 $W=0.230000 $SI_W=0.23 $TYPE=10 $DIR=1 $LLX=3.065000 $LLY=0.485000 $URX=3.295000 $URY=0.680000 $lvl=1
ReB16 Y:11 Y 0.526316 $metal1  $L=1.2 $W=0.285000 $SI_W=0.285 $TYPE=10 $DIR=1 $LLX=3.065000 $LLY=0.810000 $URX=3.350000 $URY=2.010000 $lvl=1
ReB17 Y Y:14 0.410088 $metal1  $L=0.935 $W=0.285000 $SI_W=0.285 $TYPE=10 $DIR=1 $LLX=3.065000 $LLY=2.010000 $URX=3.350000 $URY=2.945000 $lvl=1
ReB18 Y:14 Y:15 0.221491 $metal1  $L=0.505 $W=0.285000 $SI_W=0.285 $TYPE=10 $DIR=1 $LLX=3.065000 $LLY=2.945000 $URX=3.350000 $URY=3.450000 $lvl=1
RfB19 Y:1 Y:3 54.964703 $li  $L=0.73 $W=0.170000 $SI_W=0.17 $TYPE=10 $DIR=1 $LLX=3.095000 $LLY=3.015000 $URX=3.265000 $URY=3.745000 $lvl=2
RfB20 Y:3 Y:4 1.006742 $li  $L=0.07 $W=0.170000 $SI_W=0.89 $TYPE=10 $DIR=1 $LLX=3.095000 $LLY=2.945000 $URX=3.265000 $URY=3.015000 $lvl=2
RfB21 Y:4 Y:5 49.694118 $li  $L=0.66 $W=0.170000 $SI_W=0.17 $TYPE=10 $DIR=1 $LLX=3.095000 $LLY=2.285000 $URX=3.265000 $URY=2.945000 $lvl=2
RfB22 Y:6 Y:7 25.976471 $li  $L=0.345 $W=0.170000 $SI_W=0.17 $TYPE=10 $DIR=1 $LLX=3.095000 $LLY=0.810000 $URX=3.265000 $URY=1.155000 $lvl=2
RfB23 Y:7 Y:9 0.923711 $li  $L=0.035 $W=0.170000 $SI_W=0.485 $TYPE=10 $DIR=1 $LLX=3.095000 $LLY=0.775000 $URX=3.265000 $URY=0.810000 $lvl=2
RfB24 Y:9 Y:10 28.611765 $li  $L=0.38 $W=0.170000 $SI_W=0.17 $TYPE=10 $DIR=1 $LLX=3.095000 $LLY=0.395000 $URX=3.265000 $URY=0.775000 $lvl=2
RhB25 Mmn4:d Y:9 7.500000 $licon_diff  $A=0.0578 $VC=0 $SAVL=0 $SAVC=0 $SI_A=0.0578 $COVER_DIR=0 $LLX=0.000000 $LLY=0.000000 $URX=-0.057800 $URY=-2.000000 $lvl=5
Rh_2_B26 Mmp4:d Y:3 3.750000 $licon_diff  $A=0.1156 $VC=0 $SAVL=0 $SAVC=0 $SI_A=0.1156 $COVER_DIR=0 $LLX=0.000000 $LLY=0.000000 $URX=-0.115600 $URY=-4.000000 $lvl=5
RjB27 Y:7 Y:11 76.000000 $mcon  $A=0.0578 $VC=0 $SAVL=0 $SAVC=0 $SI_A=0.0578 $COVER_DIR=0 $LLX=0.000000 $LLY=0.000000 $URX=-0.057800 $URY=-2.000000 $lvl=6
RjB28 Y:4 Y:14 50.666668 $mcon  $A=0.0867 $VC=0 $SAVL=0 $SAVC=0 $SI_A=0.0867 $COVER_DIR=0 $LLX=0.000000 $LLY=0.000000 $URX=-0.086700 $URY=-3.000000 $lvl=6
*
*|NET A 9.31467e-16
*|P (A X 0 0.9350 1.7950) // $llx=0.9350 $lly=1.7950 $urx=0.9350 $ury=1.7950 $lvl=1
*|I (Mmp0:g Mmp0 g X 0 0.4750 3.3550) // $llx=0.4750 $lly=3.3550 $urx=0.4750 $ury=3.3550 $lvl=3
*|I (Mmn0:g Mmn0 g X 0 0.4750 0.6075) // $llx=0.4750 $lly=0.6075 $urx=0.4750 $ury=0.6075 $lvl=3
*|S (A:8 0.4750 3.8950) // $llx=0.4750 $lly=3.8950 $urx=0.4750 $ury=3.8950 $lvl=3
*|S (A:9 0.4800 1.4650) // $llx=0.4800 $lly=1.4650 $urx=0.4800 $ury=1.4650 $lvl=3
*|S (A:10 0.4800 1.3000) // $llx=0.4800 $lly=1.3000 $urx=0.4800 $ury=1.3000 $lvl=3
*|S (A:11 0.4750 0.2450) // $llx=0.4750 $lly=0.2450 $urx=0.4750 $ury=0.2450 $lvl=3
*|S (A:12 1.0850 1.4650) // $llx=1.0850 $lly=1.4650 $urx=1.0850 $ury=1.4650 $lvl=2
*|S (A:13 0.9200 1.4650) // $llx=0.9200 $lly=1.4650 $urx=0.9200 $ury=1.4650 $lvl=2
*|S (A:14 0.4800 1.4650) // $llx=0.4800 $lly=1.4650 $urx=0.4800 $ury=1.4650 $lvl=2
*|S (A:15 0.2950 1.4650) // $llx=0.2950 $lly=1.4650 $urx=0.2950 $ury=1.4650 $lvl=2
*|S (A:16 0.9200 2.4400) // $llx=0.9200 $lly=2.4400 $urx=0.9200 $ury=2.4400 $lvl=1
*|S (A:17 0.9200 1.4650) // $llx=0.9200 $lly=1.4650 $urx=0.9200 $ury=1.4650 $lvl=1
*|S (A:18 0.9200 1.2000) // $llx=0.9200 $lly=1.2000 $urx=0.9200 $ury=1.2000 $lvl=1
CA1 Mmn0:g VSS! 1.54709e-18 $lvl=3
CA2 A:8 VSS! 1.38766e-18 $lvl=3
CA3 A:17 VSS! 3.56237e-18 $lvl=1
CA4 A:16 VSS! 5.53584e-18 $lvl=1
CA5 A:18 VSS! 5.2462e-18 $lvl=1
CA6 A:14 VSS! 2.27871e-18 $lvl=2
CA7 A:12 VSS! 8.01991e-18 $lvl=2
CA8 A:15 VSS! 2.78829e-18 $lvl=2
CA9 A:13 VSS! 2.65711e-18 $lvl=2
CA10 A:9 VSS! 2.26443e-17 $lvl=3
CA11 A:12 n1:25 3.00497e-18 $lvl1=2 $lvl2=2
CA12 A:16 n1:32 2.90247e-18 $lvl1=1 $lvl2=1
CA13 A:16 n1:25 2.69833e-18 $lvl1=1 $lvl2=2
CA14 A:18 n1:28 1.82215e-18 $lvl1=1 $lvl2=1
CA15 A:16 n1:34 1.2519e-18 $lvl1=1 $lvl2=1
CA16 A:12 n1:24 1.15475e-18 $lvl1=2 $lvl2=2
CA17 A:17 n1:32 1.0556e-18 $lvl1=1 $lvl2=1
CA18 A:16 n1:24 7.38604e-19 $lvl1=1 $lvl2=2
CA19 A:13 n1:25 7.11803e-19 $lvl1=2 $lvl2=2
CA20 A:17 n1:28 6.33651e-19 $lvl1=1 $lvl2=1
CA21 A:18 n1:32 6.12966e-19 $lvl1=1 $lvl2=1
CA22 A:12 n1:32 5.2161e-19 $lvl1=2 $lvl2=1
CA23 A:17 n1:25 4.57965e-19 $lvl1=1 $lvl2=2
CA24 A:14 n0:31 4.09772e-18 $lvl1=2 $lvl2=1
CA25 A:18 n0:31 3.96261e-18 $lvl1=1 $lvl2=1
CA26 A:14 n0:24 3.9592e-18 $lvl1=2 $lvl2=2
CA27 A:17 n0:27 3.69621e-18 $lvl1=1 $lvl2=1
CA28 A:16 n0:24 3.53327e-18 $lvl1=1 $lvl2=2
CA29 A:14 n0:21 3.28411e-18 $lvl1=2 $lvl2=2
CA30 A:9 n0:16 3.23159e-18 $lvl1=3 $lvl2=2
CA31 A:15 n0:27 3.09689e-18 $lvl1=2 $lvl2=1
CA32 A:13 n0:21 3.07573e-18 $lvl1=2 $lvl2=2
CA33 A:16 n0:23 2.65089e-18 $lvl1=1 $lvl2=2
CA34 A:9 n0:21 2.46954e-18 $lvl1=3 $lvl2=2
CA35 A:14 n0:27 2.27453e-18 $lvl1=2 $lvl2=1
CA36 A:9 n0:31 1.80543e-18 $lvl1=3 $lvl2=1
CA37 A:9 n0:27 1.75899e-18 $lvl1=3 $lvl2=1
CA38 A:15 n0:23 1.73468e-18 $lvl1=2 $lvl2=2
CA39 A:16 n0:27 1.72363e-18 $lvl1=1 $lvl2=1
CA40 A:16 n0:9 1.57904e-18 $lvl1=1 $lvl2=3
CA41 A:15 n0:16 1.53137e-18 $lvl1=2 $lvl2=2
CA42 A:17 n0:21 1.48727e-18 $lvl1=1 $lvl2=2
CA43 A:14 n0:23 1.40986e-18 $lvl1=2 $lvl2=2
CA44 A:13 n0:31 1.29402e-18 $lvl1=2 $lvl2=1
CA45 A:12 n0:31 1.10236e-18 $lvl1=2 $lvl2=1
CA46 A:12 n0:24 1.09544e-18 $lvl1=2 $lvl2=2
CA47 A:14 n0:16 1.07829e-18 $lvl1=2 $lvl2=2
CA48 A:9 n0 1.06985e-18 $lvl1=3 $lvl2=3
CA49 A:14 n0:9 9.23694e-19 $lvl1=2 $lvl2=3
CA50 A:16 n0:12 8.59808e-19 $lvl1=1 $lvl2=2
CA51 A:9 n0:23 8.50638e-19 $lvl1=3 $lvl2=2
CA52 A:9 Mmn0:d 8.4248e-19 $lvl1=3 $lvl2=4
CA53 A:12 n0:27 8.08879e-19 $lvl1=2 $lvl2=1
CA54 A:17 n0:24 7.71826e-19 $lvl1=1 $lvl2=2
CA55 A:13 n0:27 7.56339e-19 $lvl1=2 $lvl2=1
CA56 A:12 n0 7.1096e-19 $lvl1=2 $lvl2=3
CA57 Mmn0:g n0:20 7.06966e-19 $lvl1=3 $lvl2=2
CA58 A:12 n0:16 6.20035e-19 $lvl1=2 $lvl2=2
CA59 A:18 n0:17 5.8652e-19 $lvl1=1 $lvl2=2
CA60 A:13 n0:9 5.30659e-19 $lvl1=2 $lvl2=3
CA61 A:15 n0:17 4.90268e-19 $lvl1=2 $lvl2=2
CA62 A:9 n0:17 4.86242e-19 $lvl1=3 $lvl2=2
CA63 A:15 n0:21 4.73306e-19 $lvl1=2 $lvl2=2
CA64 A:8 n0:24 4.59415e-19 $lvl1=3 $lvl2=2
CA65 A:8 n0:31 4.46956e-19 $lvl1=3 $lvl2=1
CA66 A:18 n0:16 4.29745e-19 $lvl1=1 $lvl2=2
CA67 A:13 n0:24 4.20983e-19 $lvl1=2 $lvl2=2
CA68 A:17 n0:33 4.19523e-19 $lvl1=1 $lvl2=1
CA69 A:16 n0:15 3.93171e-19 $lvl1=1 $lvl2=2
CA70 A:8 n0:9 3.64845e-19 $lvl1=3 $lvl2=3
CA71 A:8 n0:33 3.55067e-19 $lvl1=3 $lvl2=1
CA72 Mmn0:g n0:27 3.36839e-19 $lvl1=3 $lvl2=1
CA73 A:17 n0:23 3.34084e-19 $lvl1=1 $lvl2=2
CA74 A:14 n0:17 3.18203e-19 $lvl1=2 $lvl2=2
CA75 Mmn0:g n0:31 2.97513e-19 $lvl1=3 $lvl2=1
CA76 A:13 n0:23 2.46462e-19 $lvl1=2 $lvl2=2