*
*|DSPF 1.5
*
*|DATE "Wed Jan  8 21:46:57 2025"
*|VENDOR "Cadence Design Systems"
*|PROGRAM "Cadence Quantus Extraction"
*|VERSION "22.1.0-p089 Linux 64 bit - (Thu Jan 19 11:47:08 PST 2023)"
*|DESIGN DLY2X4_HS
*|DIVIDER /
*|DELIMITER :
*|DeviceFingerDelim "@"
*|BUSBIT []
*|GLOBAL_TEMPERATURE 25
*|OPERATING_TEMPERATURE 25

** *VIA_COVERAGE_CODES
** *index FF FS FP FU SF SS SP SU PF PS PP PU UF US UP UU X_by_Y
** * "FF" stands for Full landing and Full coverage
** *0 0 0 0 0 0 0 0 0 0 0 0 0 0 0 0 0
** *1 0 0 0 0 0 0 0 0 0 0 0 0 0 0 0 1 1x1
** *2 0 0 0 0 0 0 0 0 0 0 0 0 0 0 1 0 1x1
** *3 0 0 0 0 0 0 0 0 0 0 0 0 0 1 0 0 1x1
** *4 0 0 0 0 0 0 0 0 0 0 0 0 1 0 0 0 1x1
** *5 0 0 0 0 0 0 0 0 0 0 0 1 0 0 0 0 1x1
** *6 0 0 0 0 0 0 0 0 0 0 1 0 0 0 0 0 1x1
** *7 0 0 0 0 0 0 0 0 0 1 0 0 0 0 0 0 1x1
** *8 0 0 0 0 0 0 0 0 1 0 0 0 0 0 0 0 1x1
** *9 0 0 0 0 0 0 0 1 0 0 0 0 0 0 0 0 1x1
** *10 0 0 0 0 0 0 1 0 0 0 0 0 0 0 0 0 1x1
** *11 0 0 0 0 0 1 0 0 0 0 0 0 0 0 0 0 1x1
** *12 0 0 0 0 1 0 0 0 0 0 0 0 0 0 0 0 1x1
** *13 0 0 0 1 0 0 0 0 0 0 0 0 0 0 0 0 1x1
** *14 0 0 1 0 0 0 0 0 0 0 0 0 0 0 0 0 1x1
** *15 0 1 0 0 0 0 0 0 0 0 0 0 0 0 0 0 1x1
** *16 1 0 0 0 0 0 0 0 0 0 0 0 0 0 0 0 1x1

** *RESISTOR_TYPES
** *1 SHORTING_ELEMENT
** *2 PRES_NG
** *3 PRES_PG
** *4 PRES_NF
** *5 PRES_PF
** *6 TCN_NDIFF
** *7 TCN_PDIFF
** *8 TCN_NFIELD
** *9 TCN_PFIELD
** *10 QUALITY_EXTRACTED
** *11 GCNLAND
** *12 TCNLAND
** *13 DUMMY
** *14 RSD
** *15 BRIDGE

** *RESISTOR_CURRENT_DIRECTION
** *0 HORIZONTAL
** *1 VERTICAL
** *2 45 DEGREE

** QRC_TECH_DIR /vols/wfo_devel/projects/reference_SKY130/tech/sky130_release_0.0.4/quantus/extraction/typical 
** HIERARCHICAL_SPLIT_PINS_DELIMITER '%'
** caps2d version: 10
*
.SUBCKT  DLY2X4_HS A Y
*
*Net Section
*
*|GROUND_NET VSS!
*
*LAYER_MAP
*0 none
*1 metal1
*2 li
*3 poly
*4 diff
*5 licon_diff
*6 mcon
*7 licon
*8 FOX

*|NET n4 4.86544e-15
*|I (Mmp8:g Mmp8 g X 0 6.2450 3.0150) // $llx=6.2450 $lly=3.0150 $urx=6.2450 $ury=3.0150 $lvl=3
*|I (Mmp8@1:g Mmp8@1 g X 0 5.8150 3.0150) // $llx=5.8150 $lly=3.0150 $urx=5.8150 $ury=3.0150 $lvl=3
*|I (Mmp8@2:g Mmp8@2 g X 0 5.3850 3.0150) // $llx=5.3850 $lly=3.0150 $urx=5.3850 $ury=3.0150 $lvl=3
*|I (Mmp8@3:g Mmp8@3 g X 0 4.9550 3.0150) // $llx=4.9550 $lly=3.0150 $urx=4.9550 $ury=3.0150 $lvl=3
*|I (Mmp7:d Mmp7 d X 0 4.4495 3.0150) // $llx=4.4495 $lly=3.0150 $urx=4.4495 $ury=3.0150 $lvl=4
*|I (Mmn7:d Mmn7 d X 0 4.4495 0.7750) // $llx=4.4495 $lly=0.7750 $urx=4.4495 $ury=0.7750 $lvl=4
*|I (Mmn8:g Mmn8 g X 0 6.2450 0.7750) // $llx=6.2450 $lly=0.7750 $urx=6.2450 $ury=0.7750 $lvl=3
*|I (Mmn8@1:g Mmn8@1 g X 0 5.8150 0.7750) // $llx=5.8150 $lly=0.7750 $urx=5.8150 $ury=0.7750 $lvl=3
*|I (Mmn8@2:g Mmn8@2 g X 0 5.3850 0.7750) // $llx=5.3850 $lly=0.7750 $urx=5.3850 $ury=0.7750 $lvl=3
*|I (Mmn8@3:g Mmn8@3 g X 0 4.9550 0.7750) // $llx=4.9550 $lly=0.7750 $urx=4.9550 $ury=0.7750 $lvl=3
*|S (n4 4.9550 0.7750) // $llx=4.9550 $lly=0.7750 $urx=4.9550 $ury=0.7750 $lvl=3
*|S (n4:29 6.2450 3.8950) // $llx=6.2450 $lly=3.8950 $urx=6.2450 $ury=3.8950 $lvl=3
*|S (n4:30 6.2450 1.4700) // $llx=6.2450 $lly=1.4700 $urx=6.2450 $ury=1.4700 $lvl=3
*|S (n4:31 5.8150 1.4700) // $llx=5.8150 $lly=1.4700 $urx=5.8150 $ury=1.4700 $lvl=3
*|S (n4:32 5.6000 1.4700) // $llx=5.6000 $lly=1.4700 $urx=5.6000 $ury=1.4700 $lvl=3
*|S (n4:33 5.3850 1.4700) // $llx=5.3850 $lly=1.4700 $urx=5.3850 $ury=1.4700 $lvl=3
*|S (n4:34 4.9550 1.4700) // $llx=4.9550 $lly=1.4700 $urx=4.9550 $ury=1.4700 $lvl=3
*|S (n4:35 6.2450 0.2450) // $llx=6.2450 $lly=0.2450 $urx=6.2450 $ury=0.2450 $lvl=3
*|S (n4:36 5.8150 0.2450) // $llx=5.8150 $lly=0.2450 $urx=5.8150 $ury=0.2450 $lvl=3
*|S (n4:37 5.8150 3.8950) // $llx=5.8150 $lly=3.8950 $urx=5.8150 $ury=3.8950 $lvl=3
*|S (n4:38 5.3850 0.2450) // $llx=5.3850 $lly=0.2450 $urx=5.3850 $ury=0.2450 $lvl=3
*|S (n4:39 5.3850 3.8950) // $llx=5.3850 $lly=3.8950 $urx=5.3850 $ury=3.8950 $lvl=3
*|S (n4:40 4.9550 3.8950) // $llx=4.9550 $lly=3.8950 $urx=4.9550 $ury=3.8950 $lvl=3
*|S (n4:41 4.9550 0.2450) // $llx=4.9550 $lly=0.2450 $urx=4.9550 $ury=0.2450 $lvl=3
*|S (n4:42 4.3100 3.7450) // $llx=4.3100 $lly=3.7450 $urx=4.3100 $ury=3.7450 $lvl=2
*|S (n4:44 4.3100 3.0150) // $llx=4.3100 $lly=3.0150 $urx=4.3100 $ury=3.0150 $lvl=2
*|S (n4:45 4.3100 2.7150) // $llx=4.3100 $lly=2.7150 $urx=4.3100 $ury=2.7150 $lvl=2
*|S (n4:46 4.3100 2.2850) // $llx=4.3100 $lly=2.2850 $urx=4.3100 $ury=2.2850 $lvl=2
*|S (n4:47 4.3100 1.1550) // $llx=4.3100 $lly=1.1550 $urx=4.3100 $ury=1.1550 $lvl=2
*|S (n4:48 4.3100 0.8100) // $llx=4.3100 $lly=0.8100 $urx=4.3100 $ury=0.8100 $lvl=2
*|S (n4:50 4.3100 0.7750) // $llx=4.3100 $lly=0.7750 $urx=4.3100 $ury=0.7750 $lvl=2
*|S (n4:51 4.3100 0.3950) // $llx=4.3100 $lly=0.3950 $urx=4.3100 $ury=0.3950 $lvl=2
*|S (n4:52 6.2750 1.4700) // $llx=6.2750 $lly=1.4700 $urx=6.2750 $ury=1.4700 $lvl=2
*|S (n4:53 5.6000 1.4700) // $llx=5.6000 $lly=1.4700 $urx=5.6000 $ury=1.4700 $lvl=2
*|S (n4:54 4.3100 1.4700) // $llx=4.3100 $lly=1.4700 $urx=4.3100 $ury=1.4700 $lvl=2
*|S (n4:55 4.1450 1.4700) // $llx=4.1450 $lly=1.4700 $urx=4.1450 $ury=1.4700 $lvl=2
*|S (n4:56 4.3100 3.0400) // $llx=4.3100 $lly=3.0400 $urx=4.3100 $ury=3.0400 $lvl=1
*|S (n4:57 4.3100 2.7150) // $llx=4.3100 $lly=2.7150 $urx=4.3100 $ury=2.7150 $lvl=1
*|S (n4:58 4.3100 1.4700) // $llx=4.3100 $lly=1.4700 $urx=4.3100 $ury=1.4700 $lvl=1
*|S (n4:59 4.3100 0.8100) // $llx=4.3100 $lly=0.8100 $urx=4.3100 $ury=0.8100 $lvl=1
*|S (n4:60 4.3100 0.4850) // $llx=4.3100 $lly=0.4850 $urx=4.3100 $ury=0.4850 $lvl=1
CI1 Mmn8@2:g VSS! 1.41146e-18 $lvl=3
CI2 Mmn8:g VSS! 2.44697e-18 $lvl=3
CI3 Mmn7:d VSS! 2.29284e-18 $lvl=4
CI4 Mmp7:d VSS! 3.05623e-18 $lvl=4
CI5 n4:59 VSS! 6.61957e-18 $lvl=1
CI6 n4:58 VSS! 5.5749e-18 $lvl=1
CI7 n4:57 VSS! 8.46487e-18 $lvl=1
CI8 n4:56 VSS! 2.95167e-18 $lvl=1
CI9 n4:60 VSS! 4.21691e-18 $lvl=1
CI10 n4:29 VSS! 2.00024e-18 $lvl=3
CI11 n4:37 VSS! 1.9611e-18 $lvl=3
CI12 n4:39 VSS! 2.15131e-18 $lvl=3
CI13 n4:40 VSS! 3.04447e-18 $lvl=3
CI14 n4:36 VSS! 1.98699e-18 $lvl=3
CI15 n4:53 VSS! 8.3344e-18 $lvl=2
CI16 n4:55 VSS! 7.8535e-18 $lvl=2
CI17 n4:47 VSS! 1.36943e-17 $lvl=2
CI18 n4:51 VSS! 1.05783e-18 $lvl=2
CI19 n4:42 VSS! 7.73389e-18 $lvl=2
CI20 n4:46 VSS! 3.73748e-18 $lvl=2
CI21 n4:48 VSS! 1.53628e-18 $lvl=2
CI22 n4:54 VSS! 2.87019e-18 $lvl=2
CI23 n4:45 VSS! 3.02218e-18 $lvl=2
CI24 n4:32 VSS! 4.29664e-17 $lvl=3
CI25 n4 VSS! 2.27115e-18 $lvl=3
CI26 n4 VSS!:34 9.14668e-18 $lvl1=3 $lvl2=2
CI27 n4:55 VSS!:43 8.80907e-18 $lvl1=2 $lvl2=2
CI28 n4:53 VSS!:43 8.21496e-18 $lvl1=2 $lvl2=2
CI29 n4:59 VSS!:43 7.89243e-18 $lvl1=1 $lvl2=2
CI30 n4:36 VSS!:29 7.82973e-18 $lvl1=3 $lvl2=2
CI31 n4:53 VSS!:25 7.82189e-18 $lvl1=2 $lvl2=2
CI32 n4:42 VSS!:18 6.67118e-18 $lvl1=2 $lvl2=3
CI33 Mmn8@2:g VSS!:29 6.06505e-18 $lvl1=3 $lvl2=2
CI34 n4:42 VSS!:19 5.47213e-18 $lvl1=2 $lvl2=2
CI35 n4:51 VSS!:43 5.03847e-18 $lvl1=2 $lvl2=2
CI36 n4:32 VSS!:25 4.46085e-18 $lvl1=3 $lvl2=2
CI37 n4:48 VSS!:43 4.15517e-18 $lvl1=2 $lvl2=2
CI38 n4:32 VSS!:43 3.81909e-18 $lvl1=3 $lvl2=2
CI39 Mmn8:g VSS!:28 3.74971e-18 $lvl1=3 $lvl2=2
CI40 Mmn7:d VSS!:34 3.43403e-18 $lvl1=4 $lvl2=2
CI41 n4:58 VSS!:52 3.3307e-18 $lvl1=1 $lvl2=1
CI42 Mmn8:g VSS!:29 2.85603e-18 $lvl1=3 $lvl2=2
CI43 n4:48 VSS!:52 2.77929e-18 $lvl1=2 $lvl2=1
CI44 n4:51 VSS!:31 2.6519e-18 $lvl1=2 $lvl2=2
CI45 n4:32 Mmn8@1:s 2.51254e-18 $lvl1=3 $lvl2=4
CI46 Mmn8@2:g VSS!:34 2.46889e-18 $lvl1=3 $lvl2=2
CI47 n4:48 VSS!:34 2.41718e-18 $lvl1=2 $lvl2=2
CI48 n4:58 VSS!:43 2.07169e-18 $lvl1=1 $lvl2=2
CI49 n4:51 VSS!:52 1.92891e-18 $lvl1=2 $lvl2=1
CI50 n4:53 VSS!:52 1.47351e-18 $lvl1=2 $lvl2=1
CI51 Mmp7:d VSS!:18 1.4514e-18 $lvl1=4 $lvl2=3
CI52 n4:57 VSS!:52 1.35385e-18 $lvl1=1 $lvl2=1
CI53 n4:42 VSS!:16 1.34108e-18 $lvl1=2 $lvl2=3
CI54 n4:46 VSS!:19 1.31833e-18 $lvl1=2 $lvl2=2
CI55 n4:48 VSS!:31 1.2542e-18 $lvl1=2 $lvl2=2
CI56 n4:54 VSS!:43 1.14416e-18 $lvl1=2 $lvl2=2
CI57 n4:51 VSS!:34 1.17936e-17 $lvl1=2 $lvl2=2
CI58 n4:53 VSS!:40 1.42131e-17 $lvl1=2 $lvl2=2
CI59 Mmn8:g VSS!:25 1.29238e-16 $lvl1=3 $lvl2=2
CI60 n4:32 VSS!:40 1.54795e-17 $lvl1=3 $lvl2=2
CI61 n4 VSS!:43 1.29309e-16 $lvl1=3 $lvl2=2
CI62 n4:59 VSS!:52 1.81353e-17 $lvl1=1 $lvl2=1
CI63 n4:47 VSS!:43 4.59132e-17 $lvl1=2 $lvl2=2
CI64 n4:36 VSS!:40 1.26498e-16 $lvl1=3 $lvl2=2
CI65 Mmn8@2:g VSS!:40 1.29661e-16 $lvl1=3 $lvl2=2
CI66 n4:60 VSS!:52 2.35434e-17 $lvl1=1 $lvl2=1
CI67 n4:47 VSS!:34 1.06918e-17 $lvl1=2 $lvl2=2
ReI273 n4:56 n4:57 0.176630 $metal1  $L=0.325 $W=0.230000 $SI_W=0.23 $TYPE=10 $DIR=1 $LLX=4.195000 $LLY=2.715000 $URX=4.425000 $URY=3.040000 $lvl=1
ReI274 n4:57 n4:58 0.676630 $metal1  $L=1.245 $W=0.230000 $SI_W=0.23 $TYPE=10 $DIR=1 $LLX=4.195000 $LLY=1.470000 $URX=4.425000 $URY=2.715000 $lvl=1
ReI275 n4:58 n4:59 0.358696 $metal1  $L=0.66 $W=0.230000 $SI_W=0.23 $TYPE=10 $DIR=1 $LLX=4.195000 $LLY=0.810000 $URX=4.425000 $URY=1.470000 $lvl=1
ReI276 n4:59 n4:60 0.176630 $metal1  $L=0.325 $W=0.230000 $SI_W=0.23 $TYPE=10 $DIR=1 $LLX=4.195000 $LLY=0.485000 $URX=4.425000 $URY=0.810000 $lvl=1
RfI277 n4:42 n4:44 54.964703 $li  $L=0.73 $W=0.170000 $SI_W=0.17 $TYPE=10 $DIR=1 $LLX=4.225000 $LLY=3.015000 $URX=4.395000 $URY=3.745000 $lvl=2
RfI278 n4:44 n4:45 7.245283 $li  $L=0.3 $W=0.170000 $SI_W=0.53 $TYPE=10 $DIR=1 $LLX=4.225000 $LLY=2.715000 $URX=4.395000 $URY=3.015000 $lvl=2
RfI279 n4:45 n4:46 32.376472 $li  $L=0.43 $W=0.170000 $SI_W=0.17 $TYPE=10 $DIR=1 $LLX=4.225000 $LLY=2.285000 $URX=4.395000 $URY=2.715000 $lvl=2
RfI280 n4:47 n4:48 25.976471 $li  $L=0.345 $W=0.170000 $SI_W=0.17 $TYPE=10 $DIR=1 $LLX=4.225000 $LLY=0.810000 $URX=4.395000 $URY=1.155000 $lvl=2
RfI281 n4:48 n4:50 0.923711 $li  $L=0.035 $W=0.170000 $SI_W=0.485 $TYPE=10 $DIR=1 $LLX=4.225000 $LLY=0.775000 $URX=4.395000 $URY=0.810000 $lvl=2
RfI282 n4:50 n4:51 28.611765 $li  $L=0.38 $W=0.170000 $SI_W=0.17 $TYPE=10 $DIR=1 $LLX=4.225000 $LLY=0.395000 $URX=4.395000 $URY=0.775000 $lvl=2
RfI283 n4:52 n4:53 50.823528 $li  $L=0.675 $W=0.170000 $SI_W=0.17 $TYPE=10 $DIR=0 $LLX=5.600000 $LLY=1.385000 $URX=6.275000 $URY=1.555000 $lvl=2
RfI284 n4:53 n4:54 97.129410 $li  $L=1.29 $W=0.170000 $SI_W=0.17 $TYPE=10 $DIR=0 $LLX=4.310000 $LLY=1.385000 $URX=5.600000 $URY=1.555000 $lvl=2
RfI285 n4:54 n4:55 12.423529 $li  $L=0.165 $W=0.170000 $SI_W=0.17 $TYPE=10 $DIR=0 $LLX=4.145000 $LLY=1.385000 $URX=4.310000 $URY=1.555000 $lvl=2
RgI286 n4:29 Mmp8:g 282.773346 $poly  $L=0.88 $W=0.150000 $SI_W=0.15 $TYPE=10 $DIR=1 $LLX=6.170000 $LLY=3.015000 $URX=6.320000 $URY=3.895000 $lvl=3
RgI287 Mmp8:g n4:30 496.379669 $poly  $L=1.54475 $W=0.150000 $SI_W=0.15 $TYPE=10 $DIR=1 $LLX=6.170000 $LLY=1.470000 $URX=6.320000 $URY=3.015000 $lvl=3
RgI288 n4:30 n4:31 76.762962 $poly  $L=0.43 $W=0.270000 $SI_W=0.27 $TYPE=10 $DIR=0 $LLX=5.815000 $LLY=1.335000 $URX=6.245000 $URY=1.605000 $lvl=3
RgI289 n4:31 n4:32 38.426109 $poly  $L=0.21525 $W=0.270000 $SI_W=0.27 $TYPE=10 $DIR=0 $LLX=5.600000 $LLY=1.335000 $URX=5.815000 $URY=1.605000 $lvl=3
RgI290 n4:32 n4:33 38.336849 $poly  $L=0.21475 $W=0.270000 $SI_W=0.27 $TYPE=10 $DIR=0 $LLX=5.385000 $LLY=1.335000 $URX=5.600000 $URY=1.605000 $lvl=3
RgI291 n4:33 n4:34 76.762962 $poly  $L=0.43 $W=0.270000 $SI_W=0.27 $TYPE=10 $DIR=0 $LLX=4.955000 $LLY=1.335000 $URX=5.385000 $URY=1.605000 $lvl=3
RgI292 n4:34 n4 223.406998 $poly  $L=0.69525 $W=0.150000 $SI_W=0.15 $TYPE=10 $DIR=1 $LLX=4.880000 $LLY=0.775000 $URX=5.030000 $URY=1.470000 $lvl=3
RgI293 n4:30 Mmn8:g 223.406998 $poly  $L=0.69525 $W=0.150000 $SI_W=0.15 $TYPE=10 $DIR=1 $LLX=6.170000 $LLY=0.775000 $URX=6.320000 $URY=1.470000 $lvl=3
RgI294 Mmn8:g n4:35 170.306671 $poly  $L=0.53 $W=0.150000 $SI_W=0.15 $TYPE=10 $DIR=1 $LLX=6.170000 $LLY=0.245000 $URX=6.320000 $URY=0.775000 $lvl=3
RgI295 n4:31 Mmn8@1:g 204.091293 $poly  $L=0.69525 $W=0.150000 $SI_W=0.15 $TYPE=10 $DIR=1 $LLX=5.740000 $LLY=0.775000 $URX=5.890000 $URY=1.470000 $lvl=3
RgI296 Mmn8@1:g n4:36 170.306671 $poly  $L=0.53 $W=0.150000 $SI_W=0.15 $TYPE=10 $DIR=1 $LLX=5.740000 $LLY=0.245000 $URX=5.890000 $URY=0.775000 $lvl=3
RgI297 n4:31 Mmp8@1:g 477.135376 $poly  $L=1.54475 $W=0.150000 $SI_W=0.15 $TYPE=10 $DIR=1 $LLX=5.740000 $LLY=1.470000 $URX=5.890000 $URY=3.015000 $lvl=3
RgI298 Mmp8@1:g n4:37 282.773346 $poly  $L=0.88 $W=0.150000 $SI_W=0.15 $TYPE=10 $DIR=1 $LLX=5.740000 $LLY=3.015000 $URX=5.890000 $URY=3.895000 $lvl=3
RgI299 n4:33 Mmn8@2:g 204.091293 $poly  $L=0.69525 $W=0.150000 $SI_W=0.15 $TYPE=10 $DIR=1 $LLX=5.310000 $LLY=0.775000 $URX=5.460000 $URY=1.470000 $lvl=3
RgI300 Mmn8@2:g n4:38 170.306671 $poly  $L=0.53 $W=0.150000 $SI_W=0.15 $TYPE=10 $DIR=1 $LLX=5.310000 $LLY=0.245000 $URX=5.460000 $URY=0.775000 $lvl=3
RgI301 n4:33 Mmp8@2:g 477.135376 $poly  $L=1.54475 $W=0.150000 $SI_W=0.15 $TYPE=10 $DIR=1 $LLX=5.310000 $LLY=1.470000 $URX=5.460000 $URY=3.015000 $lvl=3
RgI302 Mmp8@2:g n4:39 282.773346 $poly  $L=0.88 $W=0.150000 $SI_W=0.15 $TYPE=10 $DIR=1 $LLX=5.310000 $LLY=3.015000 $URX=5.460000 $URY=3.895000 $lvl=3
RgI303 n4:34 Mmp8@3:g 496.379669 $poly  $L=1.54475 $W=0.150000 $SI_W=0.15 $TYPE=10 $DIR=1 $LLX=4.880000 $LLY=1.470000 $URX=5.030000 $URY=3.015000 $lvl=3
RgI304 Mmp8@3:g n4:40 282.773346 $poly  $L=0.88 $W=0.150000 $SI_W=0.15 $TYPE=10 $DIR=1 $LLX=4.880000 $LLY=3.015000 $URX=5.030000 $URY=3.895000 $lvl=3
RgI305 n4 n4:41 170.306671 $poly  $L=0.53 $W=0.150000 $SI_W=0.15 $TYPE=10 $DIR=1 $LLX=4.880000 $LLY=0.245000 $URX=5.030000 $URY=0.775000 $lvl=3
RhI306 Mmn7:d n4:50 7.500000 $licon_diff  $A=0.0578 $VC=0 $SAVL=0 $SAVC=0 $SI_A=0.0578 $COVER_DIR=0 $LLX=0.000000 $LLY=0.000000 $URX=-0.057800 $URY=-2.000000 $lvl=5
Rh_2_I307 Mmp7:d n4:44 3.750000 $licon_diff  $A=0.1156 $VC=0 $SAVL=0 $SAVC=0 $SI_A=0.1156 $COVER_DIR=0 $LLX=0.000000 $LLY=0.000000 $URX=-0.115600 $URY=-4.000000 $lvl=5
RjI308 n4:45 n4:57 76.000000 $mcon  $A=0.0578 $VC=0 $SAVL=0 $SAVC=0 $SI_A=0.0578 $COVER_DIR=0 $LLX=0.000000 $LLY=0.000000 $URX=-0.057800 $URY=-2.000000 $lvl=6
RjI309 n4:54 n4:58 152.000000 $mcon  $L=0.17 $W=0.17 $A=0.0289 $VC=0 $SAVL=0 $SAVC=0 $SI_A=0.0289 $COVER_DIR=0 $LLX=0.000000 $LLY=0.000000 $URX=0.170000 $URY=0.170000 $lvl=6
RjI310 n4:48 n4:59 76.000000 $mcon  $A=0.0578 $VC=0 $SAVL=0 $SAVC=0 $SI_A=0.0578 $COVER_DIR=0 $LLX=0.000000 $LLY=0.000000 $URX=-0.057800 $URY=-2.000000 $lvl=6
RiI311 n4:32 n4:53 5.000000 $licon  $A=0.0867 $VC=0 $SAVL=0 $SAVC=0 $SI_A=0.0867 $COVER_DIR=0 $LLX=0.000000 $LLY=0.000000 $URX=-0.086700 $URY=-3.000000 $lvl=7
RmwI312 Mmn8@3:g n4 0.001000 $poly $W=1000000 $SI_W=1000000 $TYPE=1 $DIR=0
*
*|NET n2 1.77242e-15
*|I (Mmp4:d Mmp4 d X 0 2.2095 3.3550) // $llx=2.2095 $lly=3.3550 $urx=2.2095 $ury=3.3550 $lvl=4
*|I (Mmp5:g Mmp5 g X 0 3.1450 3.3550) // $llx=3.1450 $lly=3.3550 $urx=3.1450 $ury=3.3550 $lvl=3
*|I (Mmn5:g Mmn5 g X 0 3.1450 0.6075) // $llx=3.1450 $lly=0.6075 $urx=3.1450 $ury=0.6075 $lvl=3
*|I (Mmn4:d Mmn4 d X 0 2.2095 0.6075) // $llx=2.2095 $lly=0.6075 $urx=2.2095 $ury=0.6075 $lvl=4
*|S (n2 3.1450 0.6075) // $llx=3.1450 $lly=0.6075 $urx=3.1450 $ury=0.6075 $lvl=3
*|S (n2:8 3.1450 3.8950) // $llx=3.1450 $lly=3.8950 $urx=3.1450 $ury=3.8950 $lvl=3
*|S (n2:9 3.1750 1.6000) // $llx=3.1750 $lly=1.6000 $urx=3.1750 $ury=1.6000 $lvl=3
*|S (n2:10 3.1750 1.4350) // $llx=3.1750 $lly=1.4350 $urx=3.1750 $ury=1.4350 $lvl=3
*|S (n2:11 3.1450 0.2450) // $llx=3.1450 $lly=0.2450 $urx=3.1450 $ury=0.2450 $lvl=3
*|S (n2:12 2.0700 3.7450) // $llx=2.0700 $lly=3.7450 $urx=2.0700 $ury=3.7450 $lvl=2
*|S (n2:14 2.0700 3.3550) // $llx=2.0700 $lly=3.3550 $urx=2.0700 $ury=3.3550 $lvl=2
*|S (n2:15 2.0700 2.8950) // $llx=2.0700 $lly=2.8950 $urx=2.0700 $ury=2.8950 $lvl=2
*|S (n2:16 2.0700 2.7300) // $llx=2.0700 $lly=2.7300 $urx=2.0700 $ury=2.7300 $lvl=2
*|S (n2:17 2.0700 0.8200) // $llx=2.0700 $lly=0.8200 $urx=2.0700 $ury=0.8200 $lvl=2
*|S (n2:18 2.0700 0.6550) // $llx=2.0700 $lly=0.6550 $urx=2.0700 $ury=0.6550 $lvl=2
*|S (n2:20 2.0700 0.6050) // $llx=2.0700 $lly=0.6050 $urx=2.0700 $ury=0.6050 $lvl=2
*|S (n2:21 2.0700 0.3950) // $llx=2.0700 $lly=0.3950 $urx=2.0700 $ury=0.3950 $lvl=2
*|S (n2:22 3.3400 1.6000) // $llx=3.3400 $lly=1.6000 $urx=3.3400 $ury=1.6000 $lvl=2
*|S (n2:23 3.1750 1.6000) // $llx=3.1750 $lly=1.6000 $urx=3.1750 $ury=1.6000 $lvl=2
*|S (n2:24 2.0700 1.6000) // $llx=2.0700 $lly=1.6000 $urx=2.0700 $ury=1.6000 $lvl=2
*|S (n2:25 1.9050 1.6000) // $llx=1.9050 $lly=1.6000 $urx=1.9050 $ury=1.6000 $lvl=2
*|S (n2:26 2.0700 3.0400) // $llx=2.0700 $lly=3.0400 $urx=2.0700 $ury=3.0400 $lvl=1
*|S (n2:27 2.0700 2.8950) // $llx=2.0700 $lly=2.8950 $urx=2.0700 $ury=2.8950 $lvl=1
*|S (n2:28 2.0700 1.6000) // $llx=2.0700 $lly=1.6000 $urx=2.0700 $ury=1.6000 $lvl=1
*|S (n2:29 2.0700 0.6550) // $llx=2.0700 $lly=0.6550 $urx=2.0700 $ury=0.6550 $lvl=1
*|S (n2:30 2.0700 0.5100) // $llx=2.0700 $lly=0.5100 $urx=2.0700 $ury=0.5100 $lvl=1
CG1 Mmn4:d VSS! 1.20458e-18 $lvl=4
CG2 Mmp4:d VSS! 1.47287e-18 $lvl=4
CG3 n2:29 VSS! 5.27171e-18 $lvl=1
CG4 n2:28 VSS! 1.0281e-17 $lvl=1
CG5 n2:27 VSS! 1.06726e-17 $lvl=1
CG6 n2:8 VSS! 2.45197e-18 $lvl=3
CG7 n2:23 VSS! 6.71723e-18 $lvl=2
CG8 n2:25 VSS! 1.09203e-17 $lvl=2
CG9 n2:17 VSS! 9.42619e-18 $lvl=2
CG10 n2:21 VSS! 1.17443e-18 $lvl=2
CG11 n2:12 VSS! 3.22217e-18 $lvl=2
CG12 n2:16 VSS! 2.95186e-18 $lvl=2
CG13 n2:18 VSS! 8.36403e-19 $lvl=2
CG14 n2:24 VSS! 2.80249e-18 $lvl=2
CG15 n2:15 VSS! 1.41429e-18 $lvl=2
CG16 n2:9 VSS! 2.46699e-17 $lvl=3
CG17 n2 VSS! 1.91066e-18 $lvl=3
CG18 n2:8 n11:4 1.26145e-18 $lvl1=3 $lvl2=2
CG19 n2:8 n11 1.25305e-18 $lvl1=3 $lvl2=2
CG20 n2 n10:4 5.47279e-19 $lvl1=3 $lvl2=2
CG21 n2 n10 4.51604e-19 $lvl1=3 $lvl2=2
CG22 n2:8 n11:3 6.99319e-17 $lvl1=3 $lvl2=2
CG23 n2 n10:3 6.60769e-17 $lvl1=3 $lvl2=2
CG24 n2:12 Mmp4:s 1.13473e-18 $lvl1=2 $lvl2=4
CG25 n2:27 n9 6.79021e-19 $lvl1=1 $lvl2=2
CG26 n2:18 n8 1.33135e-18 $lvl1=2 $lvl2=2
CG27 n2:29 n8 9.84932e-19 $lvl1=1 $lvl2=2
CG28 n2:18 n8:4 8.43085e-19 $lvl1=2 $lvl2=2
CG29 n2:29 n8:4 5.46893e-19 $lvl1=1 $lvl2=2
CG30 n2:17 Mmn4:s 4.00291e-19 $lvl1=2 $lvl2=4
CG31 Mmn4:d n8:3 3.76728e-19 $lvl1=4 $lvl2=2
CG32 n2 n8:3 3.23164e-19 $lvl1=3 $lvl2=2
CG33 n2:25 n8:3 1.90434e-19 $lvl1=2 $lvl2=2
CG34 n2:12 n9:4 3.98649e-18 $lvl1=2 $lvl2=2
CG35 n2:16 n9:3 2.18746e-18 $lvl1=2 $lvl2=2
CG36 n2:12 n9 9.74754e-18 $lvl1=2 $lvl2=2
CG37 n2:17 n8:4 1.69834e-18 $lvl1=2 $lvl2=2
CG38 n2:21 n8:3 3.1574e-18 $lvl1=2 $lvl2=2
CG39 n2:16 n9:4 3.70504e-18 $lvl1=2 $lvl2=2
CG40 n2:29 n8:3 1.97089e-18 $lvl1=1 $lvl2=2
CG41 n2:15 n9:3 1.81909e-18 $lvl1=2 $lvl2=2
CG42 n2:27 n9:3 2.68799e-18 $lvl1=1 $lvl2=2
CG43 n2:15 n9:4 2.91971e-18 $lvl1=2 $lvl2=2
CG44 n2:21 n8:4 2.02378e-18 $lvl1=2 $lvl2=2
CG45 n2:18 n8:3 4.65921e-18 $lvl1=2 $lvl2=2
CG46 n2:27 n9:4 1.95587e-18 $lvl1=1 $lvl2=2
CG47 n2:12 n9:3 2.76903e-17 $lvl1=2 $lvl2=2
CG48 n2:17 n8:3 1.44275e-17 $lvl1=2 $lvl2=2
CG49 n2:17 n8 2.39403e-18 $lvl1=2 $lvl2=2
CG50 n2:23 n3:25 5.83191e-18 $lvl1=2 $lvl2=2
CG51 n2:9 n3:25 4.20882e-18 $lvl1=3 $lvl2=2
CG52 n2:23 n3:28 2.19944e-18 $lvl1=2 $lvl2=1
CG53 n2:8 n3:12 1.56205e-18 $lvl1=3 $lvl2=2
CG54 n2:23 n3:24 1.33361e-18 $lvl1=2 $lvl2=2
CG55 n2 VSS!:34 8.34644e-18 $lvl1=3 $lvl2=2
CG56 n2:25 VSS!:55 7.49884e-18 $lvl1=2 $lvl2=1
CG57 n2:17 VSS!:34 5.10241e-18 $lvl1=2 $lvl2=2
CG58 n2:17 VSS!:35 4.89992e-18 $lvl1=2 $lvl2=2
CG59 n2:16 VSS!:15 4.48818e-18 $lvl1=2 $lvl2=3
CG60 n2:28 VSS!:22 4.15834e-18 $lvl1=1 $lvl2=2
CG61 n2:15 VSS!:22 3.57749e-18 $lvl1=2 $lvl2=2
CG62 n2:27 VSS!:21 3.31431e-18 $lvl1=1 $lvl2=2
CG63 n2:29 VSS!:55 3.24162e-18 $lvl1=1 $lvl2=1
CG64 n2:21 VSS!:52 3.21845e-18 $lvl1=2 $lvl2=1
CG65 n2:21 VSS!:31 3.1205e-18 $lvl1=2 $lvl2=2
CG66 n2:18 VSS!:52 2.83476e-18 $lvl1=2 $lvl2=1
CG67 n2:21 VSS!:35 2.61746e-18 $lvl1=2 $lvl2=2
CG68 n2:27 VSS!:23 2.50295e-18 $lvl1=1 $lvl2=2
CG69 n2:16 VSS!:23 2.06705e-18 $lvl1=2 $lvl2=2
CG70 n2:16 VSS!:13 1.94977e-18 $lvl1=2 $lvl2=3
CG71 n2:12 VSS!:15 1.92539e-18 $lvl1=2 $lvl2=3
CG72 n2:8 VSS!:18 1.91367e-18 $lvl1=3 $lvl2=3
CG73 n2:29 VSS!:31 1.90919e-18 $lvl1=1 $lvl2=2
CG74 n2:23 VSS!:52 1.90844e-18 $lvl1=2 $lvl2=1
CG75 n2:23 VSS!:21 1.84463e-18 $lvl1=2 $lvl2=2
CG76 n2:23 VSS!:19 1.77281e-18 $lvl1=2 $lvl2=2
CG77 Mmn4:d VSS!:35 1.58123e-18 $lvl1=4 $lvl2=2
CG78 n2:18 VSS!:34 1.56097e-18 $lvl1=2 $lvl2=2
CG79 n2:17 VSS!:32 1.54171e-18 $lvl1=2 $lvl2=4
CG80 n2:9 VSS!:21 1.38336e-18 $lvl1=3 $lvl2=2
CG81 n2:9 VSS!:18 1.3676e-18 $lvl1=3 $lvl2=3
CG82 n2:27 VSS!:52 1.33367e-18 $lvl1=1 $lvl2=1
CG83 n2:9 VSS!:19 1.31969e-18 $lvl1=3 $lvl2=2
CG84 n2:29 VSS!:53 1.23287e-18 $lvl1=1 $lvl2=1
CG85 Mmp4:d VSS!:15 1.22255e-18 $lvl1=4 $lvl2=3
CG86 n2:29 VSS!:34 1.18568e-18 $lvl1=1 $lvl2=2
CG87 n2:25 VSS!:52 1.08219e-18 $lvl1=2 $lvl2=1
CG88 Mmn4:d VSS!:34 1.03874e-18 $lvl1=4 $lvl2=2
CG89 n2:18 VSS!:31 1.01941e-18 $lvl1=2 $lvl2=2
CG90 n2:15 VSS!:55 9.8441e-19 $lvl1=2 $lvl2=1
CG91 n2:17 VSS!:52 9.80044e-19 $lvl1=2 $lvl2=1
CG92 n2:16 VSS!:21 9.73265e-19 $lvl1=2 $lvl2=2
CG93 n2:15 VSS!:23 9.69511e-19 $lvl1=2 $lvl2=2
CG94 n2:24 VSS!:55 9.56657e-19 $lvl1=2 $lvl2=1
CG95 n2:12 VSS!:22 9.25726e-19 $lvl1=2 $lvl2=2
CG96 n2:8 VSS!:19 9.19985e-19 $lvl1=3 $lvl2=2
CG97 n2:28 VSS!:53 8.93883e-19 $lvl1=1 $lvl2=1
CG98 n2:12 VSS!:10 8.86208e-19 $lvl1=2 $lvl2=3
CG99 n2:9 VSS!:55 7.88438e-19 $lvl1=3 $lvl2=1
CG100 n2:15 VSS!:21 7.72291e-19 $lvl1=2 $lvl2=2
CG101 n2:12 VSS!:55 7.37683e-19 $lvl1=2 $lvl2=1
CG102 n2:28 VSS!:23 7.03861e-19 $lvl1=1 $lvl2=2
CG103 n2:23 VSS!:18 6.95424e-19 $lvl1=2 $lvl2=3
CG104 n2:28 VSS!:21 6.63629e-19 $lvl1=1 $lvl2=2
CG105 n2:8 VSS!:21 6.50417e-19 $lvl1=3 $lvl2=2
CG106 n2:12 VSS!:12 5.80541e-19 $lvl1=2 $lvl2=3
CG107 n2:18 VSS!:35 5.60519e-19 $lvl1=2 $lvl2=2
CG108 n2:29 VSS!:35 5.58798e-19 $lvl1=1 $lvl2=2
CG109 n2:27 VSS!:15 5.43209e-19 $lvl1=1 $lvl2=3
CG110 n2:12 VSS!:23 5.22772e-19 $lvl1=2 $lvl2=2
CG111 n2:25 VSS!:15 5.1237e-19 $lvl1=2 $lvl2=3
CG112 n2:25 VSS!:22 4.98132e-19 $lvl1=2 $lvl2=2
CG113 n2:17 VSS!:31 4.58518e-19 $lvl1=2 $lvl2=2
CG114 Mmp4:d VSS!:12 4.278e-19 $lvl1=4 $lvl2=3
CG115 n2:15 VSS!:15 4.19428e-19 $lvl1=2 $lvl2=3
CG116 n2:29 VSS!:46 3.92507e-19 $lvl1=1 $lvl2=2
CG117 n2:27 VSS!:53 3.81377e-19 $lvl1=1 $lvl2=1
CG118 n2:8 VSS!:15 3.77116e-19 $lvl1=3 $lvl2=3
CG119 n2:25 VSS!:23 3.64008e-19 $lvl1=2 $lvl2=2
CG120 n2:9 VSS!:46 3.58643e-19 $lvl1=3 $lvl2=2
CG121 n2:28 VSS!:55 4.10077e-17 $lvl1=1 $lvl2=1
CG122 n2:27 VSS!:22 1.38827e-17 $lvl1=1 $lvl2=2
CG123 n2:28 VSS!:52 1.18084e-17 $lvl1=1 $lvl2=1
CG124 n2:21 VSS!:34 9.6261e-18 $lvl1=2 $lvl2=2
CG125 n2:27 VSS!:55 3.0013e-17 $lvl1=1 $lvl2=1
CG126 n2:16 VSS!:22 1.73474e-17 $lvl1=2 $lvl2=2
CG127 n2 VSS!:46 6.77989e-17 $lvl1=3 $lvl2=2
CG128 n2:23 VSS!:55 1.33288e-17 $lvl1=2 $lvl2=1
CG129 n2:12 VSS!:13 1.34963e-16 $lvl1=2 $lvl2=3
CG130 n2:29 VSS!:52 5.96476e-17 $lvl1=1 $lvl2=1
ReG223 n2:26 n2:27 0.078804 $metal1  $L=0.145 $W=0.230000 $SI_W=0.23 $TYPE=10 $DIR=1 $LLX=1.955000 $LLY=2.895000 $URX=2.185000 $URY=3.040000 $lvl=1
ReG224 n2:27 n2:28 0.703804 $metal1  $L=1.295 $W=0.230000 $SI_W=0.23 $TYPE=10 $DIR=1 $LLX=1.955000 $LLY=1.600000 $URX=2.185000 $URY=2.895000 $lvl=1
ReG225 n2:28 n2:29 0.513587 $metal1  $L=0.945 $W=0.230000 $SI_W=0.23 $TYPE=10 $DIR=1 $LLX=1.955000 $LLY=0.655000 $URX=2.185000 $URY=1.600000 $lvl=1
ReG226 n2:29 n2:30 0.078804 $metal1  $L=0.145 $W=0.230000 $SI_W=0.23 $TYPE=10 $DIR=1 $LLX=1.955000 $LLY=0.510000 $URX=2.185000 $URY=0.655000 $lvl=1
RfG227 n2:12 n2:14 29.364706 $li  $L=0.39 $W=0.170000 $SI_W=0.17 $TYPE=10 $DIR=1 $LLX=1.985000 $LLY=3.355000 $URX=2.155000 $URY=3.745000 $lvl=2
RfG228 n2:14 n2:15 34.635296 $li  $L=0.46 $W=0.170000 $SI_W=0.17 $TYPE=10 $DIR=1 $LLX=1.985000 $LLY=2.895000 $URX=2.155000 $URY=3.355000 $lvl=2
RfG229 n2:15 n2:16 12.423529 $li  $L=0.165 $W=0.170000 $SI_W=0.17 $TYPE=10 $DIR=1 $LLX=1.985000 $LLY=2.730000 $URX=2.155000 $URY=2.895000 $lvl=2
RfG230 n2:17 n2:18 12.423529 $li  $L=0.165 $W=0.170000 $SI_W=0.17 $TYPE=10 $DIR=1 $LLX=1.985000 $LLY=0.655000 $URX=2.155000 $URY=0.820000 $lvl=2
RfG231 n2:18 n2:20 3.764706 $li  $L=0.05 $W=0.170000 $SI_W=0.17 $TYPE=10 $DIR=1 $LLX=1.985000 $LLY=0.605000 $URX=2.155000 $URY=0.655000 $lvl=2
RfG232 n2:20 n2:21 15.811765 $li  $L=0.21 $W=0.170000 $SI_W=0.17 $TYPE=10 $DIR=1 $LLX=1.985000 $LLY=0.395000 $URX=2.155000 $URY=0.605000 $lvl=2
RfG233 n2:22 n2:23 12.423529 $li  $L=0.165 $W=0.170000 $SI_W=0.17 $TYPE=10 $DIR=0 $LLX=3.175000 $LLY=1.515000 $URX=3.340000 $URY=1.685000 $lvl=2
RfG234 n2:23 n2:24 83.199997 $li  $L=1.105 $W=0.170000 $SI_W=0.17 $TYPE=10 $DIR=0 $LLX=2.070000 $LLY=1.515000 $URX=3.175000 $URY=1.685000 $lvl=2
RfG235 n2:24 n2:25 12.423529 $li  $L=0.165 $W=0.170000 $SI_W=0.17 $TYPE=10 $DIR=0 $LLX=1.905000 $LLY=1.515000 $URX=2.070000 $URY=1.685000 $lvl=2
RgG236 n2:8 Mmp5:g 173.519989 $poly  $L=0.54 $W=0.150000 $SI_W=0.15 $TYPE=10 $DIR=1 $LLX=3.070000 $LLY=3.355000 $URX=3.220000 $URY=3.895000 $lvl=3
RgG237 Mmp5:g n2:9 540.375549 $poly  $L=1.755 $W=0.150000 $SI_W=0.15 $TYPE=10 $DIR=1 $LLX=3.070000 $LLY=1.600000 $URX=3.220000 $URY=3.355000 $lvl=3
RgG238 n2:9 n2:10 34.134449 $poly  $L=0.1645 $W=0.270000 $SI_W=0.27 $TYPE=10 $DIR=1 $LLX=3.040000 $LLY=1.435500 $URX=3.310000 $URY=1.600000 $lvl=3
RgG239 n2:10 n2 265.947968 $poly  $L=0.8275 $W=0.150000 $SI_W=0.15 $TYPE=10 $DIR=1 $LLX=3.070000 $LLY=0.607500 $URX=3.220000 $URY=1.435000 $lvl=3
RgG240 n2 n2:11 116.483322 $poly  $L=0.3625 $W=0.150000 $SI_W=0.15 $TYPE=10 $DIR=1 $LLX=3.070000 $LLY=0.245000 $URX=3.220000 $URY=0.607500 $lvl=3
RhG241 Mmn4:d n2:20 15.000000 $licon_diff  $L=0.17 $W=0.17 $A=0.0289 $VC=0 $SAVL=0 $SAVC=0 $SI_A=0.0289 $COVER_DIR=0 $LLX=0.000000 $LLY=0.000000 $URX=0.170000 $URY=0.170000 $lvl=5
Rh_2_G242 Mmp4:d n2:14 7.500000 $licon_diff  $A=0.0578 $VC=0 $SAVL=0 $SAVC=0 $SI_A=0.0578 $COVER_DIR=0 $LLX=0.000000 $LLY=0.000000 $URX=-0.057800 $URY=-2.000000 $lvl=5
RjG243 n2:15 n2:27 152.000000 $mcon  $L=0.17 $W=0.17 $A=0.0289 $VC=0 $SAVL=0 $SAVC=0 $SI_A=0.0289 $COVER_DIR=0 $LLX=0.000000 $LLY=0.000000 $URX=0.170000 $URY=0.170000 $lvl=6
RjG244 n2:24 n2:28 152.000000 $mcon  $L=0.17 $W=0.17 $A=0.0289 $VC=0 $SAVL=0 $SAVC=0 $SI_A=0.0289 $COVER_DIR=0 $LLX=0.000000 $LLY=0.000000 $URX=0.170000 $URY=0.170000 $lvl=6
RjG245 n2:18 n2:29 152.000000 $mcon  $L=0.17 $W=0.17 $A=0.0289 $VC=0 $SAVL=0 $SAVC=0 $SI_A=0.0289 $COVER_DIR=0 $LLX=0.000000 $LLY=0.000000 $URX=0.170000 $URY=0.170000 $lvl=6
RiG246 n2:9 n2:23 15.000000 $licon  $L=0.17 $W=0.17 $A=0.0289 $VC=0 $SAVL=0 $SAVC=0 $SI_A=0.0289 $COVER_DIR=0 $LLX=0.000000 $LLY=0.000000 $URX=0.170000 $URY=0.170000 $lvl=7
RmwG247 Mmn5:g n2 0.001000 $poly $W=1000000 $SI_W=1000000 $TYPE=1 $DIR=0
*
*|NET n3 2.10815e-15
*|I (Mmp6:d Mmp6 d X 0 3.6505 3.3550) // $llx=3.6505 $lly=3.3550 $urx=3.6505 $ury=3.3550 $lvl=4
*|I (Mmp7:g Mmp7 g X 0 4.5250 3.0150) // $llx=4.5250 $lly=3.0150 $urx=4.5250 $ury=3.0150 $lvl=3
*|I (Mmn7:g Mmn7 g X 0 4.5250 0.7750) // $llx=4.5250 $lly=0.7750 $urx=4.5250 $ury=0.7750 $lvl=3
*|I (Mmn6:d Mmn6 d X 0 3.6505 0.6075) // $llx=3.6505 $lly=0.6075 $urx=3.6505 $ury=0.6075 $lvl=4
*|S (n3 4.5250 0.7750) // $llx=4.5250 $lly=0.7750 $urx=4.5250 $ury=0.7750 $lvl=3
*|S (n3:8 4.5250 3.8950) // $llx=4.5250 $lly=3.8950 $urx=4.5250 $ury=3.8950 $lvl=3
*|S (n3:9 4.4950 1.8100) // $llx=4.4950 $lly=1.8100 $urx=4.4950 $ury=1.8100 $lvl=3
*|S (n3:10 4.4950 1.6450) // $llx=4.4950 $lly=1.6450 $urx=4.4950 $ury=1.6450 $lvl=3
*|S (n3:11 4.5250 0.2450) // $llx=4.5250 $lly=0.2450 $urx=4.5250 $ury=0.2450 $lvl=3
*|S (n3:12 3.7900 3.7450) // $llx=3.7900 $lly=3.7450 $urx=3.7900 $ury=3.7450 $lvl=2
*|S (n3:14 3.7900 3.3550) // $llx=3.7900 $lly=3.3550 $urx=3.7900 $ury=3.3550 $lvl=2
*|S (n3:15 3.7900 2.8950) // $llx=3.7900 $lly=2.8950 $urx=3.7900 $ury=2.8950 $lvl=2
*|S (n3:16 3.7900 2.7300) // $llx=3.7900 $lly=2.7300 $urx=3.7900 $ury=2.7300 $lvl=2
*|S (n3:17 3.7900 0.8200) // $llx=3.7900 $lly=0.8200 $urx=3.7900 $ury=0.8200 $lvl=2
*|S (n3:18 3.7900 0.6550) // $llx=3.7900 $lly=0.6550 $urx=3.7900 $ury=0.6550 $lvl=2
*|S (n3:20 3.7900 0.6050) // $llx=3.7900 $lly=0.6050 $urx=3.7900 $ury=0.6050 $lvl=2
*|S (n3:21 3.7900 0.3950) // $llx=3.7900 $lly=0.3950 $urx=3.7900 $ury=0.3950 $lvl=2
*|S (n3:22 4.6800 1.8100) // $llx=4.6800 $lly=1.8100 $urx=4.6800 $ury=1.8100 $lvl=2
*|S (n3:23 4.4950 1.8100) // $llx=4.4950 $lly=1.8100 $urx=4.4950 $ury=1.8100 $lvl=2
*|S (n3:24 3.7900 1.8100) // $llx=3.7900 $lly=1.8100 $urx=3.7900 $ury=1.8100 $lvl=2
*|S (n3:25 3.6250 1.8100) // $llx=3.6250 $lly=1.8100 $urx=3.6250 $ury=1.8100 $lvl=2
*|S (n3:26 3.7900 3.0400) // $llx=3.7900 $lly=3.0400 $urx=3.7900 $ury=3.0400 $lvl=1
*|S (n3:27 3.7900 2.8950) // $llx=3.7900 $lly=2.8950 $urx=3.7900 $ury=2.8950 $lvl=1
*|S (n3:28 3.7900 1.8100) // $llx=3.7900 $lly=1.8100 $urx=3.7900 $ury=1.8100 $lvl=1
*|S (n3:29 3.7900 0.6550) // $llx=3.7900 $lly=0.6550 $urx=3.7900 $ury=0.6550 $lvl=1
*|S (n3:30 3.7900 0.5100) // $llx=3.7900 $lly=0.5100 $urx=3.7900 $ury=0.5100 $lvl=1
CH1 Mmn6:d VSS! 1.4195e-18 $lvl=4
CH2 Mmp6:d VSS! 9.4881e-19 $lvl=4
CH3 n3:28 VSS! 8.36382e-18 $lvl=1
CH4 n3:26 VSS! 6.45893e-18 $lvl=1
CH5 n3:30 VSS! 7.25944e-18 $lvl=1
CH6 n3:8 VSS! 2.22039e-18 $lvl=3
CH7 n3:22 VSS! 7.00423e-18 $lvl=2
CH8 n3:25 VSS! 8.02643e-18 $lvl=2
CH9 n3:17 VSS! 6.39448e-18 $lvl=2
CH10 n3:21 VSS! 1.51142e-18 $lvl=2
CH11 n3:12 VSS! 1.7322e-18 $lvl=2
CH12 n3:16 VSS! 2.64384e-18 $lvl=2
CH13 n3:18 VSS! 1.10863e-18 $lvl=2
CH14 n3:24 VSS! 3.47801e-18 $lvl=2
CH15 n3:15 VSS! 2.40965e-18 $lvl=2
CH16 n3:9 VSS! 1.87723e-17 $lvl=3
CH17 n3 VSS! 2.19011e-18 $lvl=3
CH18 n3:17 n10:4 1.38703e-18 $lvl1=2 $lvl2=2
CH19 n3:30 n10 1.19311e-18 $lvl1=1 $lvl2=2
CH20 n3:18 n10:4 9.61895e-19 $lvl1=2 $lvl2=2
CH21 n3:30 n10:4 8.26547e-19 $lvl1=1 $lvl2=2
CH22 n3:15 n11:3 1.46924e-18 $lvl1=2 $lvl2=2
CH23 n3:26 n11:4 1.25995e-18 $lvl1=1 $lvl2=2
CH24 n3:26 n11:3 1.24455e-18 $lvl1=1 $lvl2=2
CH25 n3:12 Mmp6:s 1.09633e-18 $lvl1=2 $lvl2=4
CH26 n3:17 n10 2.58771e-18 $lvl1=2 $lvl2=2
CH27 n3:18 n10:3 4.72745e-18 $lvl1=2 $lvl2=2
CH28 n3:30 n10:3 2.5818e-18 $lvl1=1 $lvl2=2
CH29 n3:12 n11 9.6218e-18 $lvl1=2 $lvl2=2
CH30 n3:21 n10:3 3.13985e-18 $lvl1=2 $lvl2=2
CH31 n3:21 n10:4 2.07652e-18 $lvl1=2 $lvl2=2
CH32 n3:17 n10:3 1.45459e-17 $lvl1=2 $lvl2=2
CH33 n3:18 n10 1.47713e-18 $lvl1=2 $lvl2=2
CH34 n3:15 n11:4 2.89601e-18 $lvl1=2 $lvl2=2
CH35 n3:16 n11:4 3.71279e-18 $lvl1=2 $lvl2=2
CH36 n3:16 n11:3 1.90149e-18 $lvl1=2 $lvl2=2
CH37 n3:12 n11:4 3.46819e-18 $lvl1=2 $lvl2=2
CH38 n3:12 n11:3 2.63509e-17 $lvl1=2 $lvl2=2
CH39 n3:22 n4:54 9.89936e-18 $lvl1=2 $lvl2=2
CH40 n3:25 n4:55 8.07557e-18 $lvl1=2 $lvl2=2
CH41 Mmp6:d n4:42 7.96305e-18 $lvl1=4 $lvl2=2
CH42 n3:26 n4:56 7.89259e-18 $lvl1=1 $lvl2=1