*
*|DSPF 1.5
*
*|DATE "Wed Jan  8 21:42:35 2025"
*|VENDOR "Cadence Design Systems"
*|PROGRAM "Cadence Quantus Extraction"
*|VERSION "22.1.0-p089 Linux 64 bit - (Thu Jan 19 11:47:08 PST 2023)"
*|DESIGN DLY4X4_HS
*|DIVIDER /
*|DELIMITER :
*|DeviceFingerDelim "@"
*|BUSBIT []
*|GLOBAL_TEMPERATURE 25
*|OPERATING_TEMPERATURE 25

** *VIA_COVERAGE_CODES
** *index FF FS FP FU SF SS SP SU PF PS PP PU UF US UP UU X_by_Y
** * "FF" stands for Full landing and Full coverage
** *0 0 0 0 0 0 0 0 0 0 0 0 0 0 0 0 0
** *1 0 0 0 0 0 0 0 0 0 0 0 0 0 0 0 1 1x1
** *2 0 0 0 0 0 0 0 0 0 0 0 0 0 0 1 0 1x1
** *3 0 0 0 0 0 0 0 0 0 0 0 0 0 1 0 0 1x1
** *4 0 0 0 0 0 0 0 0 0 0 0 0 1 0 0 0 1x1
** *5 0 0 0 0 0 0 0 0 0 0 0 1 0 0 0 0 1x1
** *6 0 0 0 0 0 0 0 0 0 0 1 0 0 0 0 0 1x1
** *7 0 0 0 0 0 0 0 0 0 1 0 0 0 0 0 0 1x1
** *8 0 0 0 0 0 0 0 0 1 0 0 0 0 0 0 0 1x1
** *9 0 0 0 0 0 0 0 1 0 0 0 0 0 0 0 0 1x1
** *10 0 0 0 0 0 0 1 0 0 0 0 0 0 0 0 0 1x1
** *11 0 0 0 0 0 1 0 0 0 0 0 0 0 0 0 0 1x1
** *12 0 0 0 0 1 0 0 0 0 0 0 0 0 0 0 0 1x1
** *13 0 0 0 1 0 0 0 0 0 0 0 0 0 0 0 0 1x1
** *14 0 0 1 0 0 0 0 0 0 0 0 0 0 0 0 0 1x1
** *15 0 1 0 0 0 0 0 0 0 0 0 0 0 0 0 0 1x1
** *16 1 0 0 0 0 0 0 0 0 0 0 0 0 0 0 0 1x1

** *RESISTOR_TYPES
** *1 SHORTING_ELEMENT
** *2 PRES_NG
** *3 PRES_PG
** *4 PRES_NF
** *5 PRES_PF
** *6 TCN_NDIFF
** *7 TCN_PDIFF
** *8 TCN_NFIELD
** *9 TCN_PFIELD
** *10 QUALITY_EXTRACTED
** *11 GCNLAND
** *12 TCNLAND
** *13 DUMMY
** *14 RSD
** *15 BRIDGE

** *RESISTOR_CURRENT_DIRECTION
** *0 HORIZONTAL
** *1 VERTICAL
** *2 45 DEGREE

** QRC_TECH_DIR /vols/wfo_devel/projects/reference_SKY130/tech/sky130_release_0.0.4/quantus/extraction/typical 
** HIERARCHICAL_SPLIT_PINS_DELIMITER '%'
** caps2d version: 10
*
.SUBCKT  DLY4X4_HS A Y
*
*Net Section
*
*|GROUND_NET VSS!
*
*LAYER_MAP
*0 none
*1 metal1
*2 li
*3 poly
*4 diff
*5 licon_diff
*6 mcon
*7 licon
*8 FOX

*|NET net369 1.69569e-15
*|I (Mmp9:g Mmp9 g X 0 5.3850 3.3550) // $llx=5.3850 $lly=3.3550 $urx=5.3850 $ury=3.3550 $lvl=3
*|I (Mmp8:d Mmp8 d X 0 4.4495 3.3550) // $llx=4.4495 $lly=3.3550 $urx=4.4495 $ury=3.3550 $lvl=4
*|I (Mmn8:d Mmn8 d X 0 4.4495 0.6075) // $llx=4.4495 $lly=0.6075 $urx=4.4495 $ury=0.6075 $lvl=4
*|I (Mmn9:g Mmn9 g X 0 5.3850 0.6075) // $llx=5.3850 $lly=0.6075 $urx=5.3850 $ury=0.6075 $lvl=3
*|S (net369 5.3850 0.6075) // $llx=5.3850 $lly=0.6075 $urx=5.3850 $ury=0.6075 $lvl=3
*|S (net369:8 5.3850 3.8950) // $llx=5.3850 $lly=3.8950 $urx=5.3850 $ury=3.8950 $lvl=3
*|S (net369:9 5.4150 1.6000) // $llx=5.4150 $lly=1.6000 $urx=5.4150 $ury=1.6000 $lvl=3
*|S (net369:10 5.4150 1.4350) // $llx=5.4150 $lly=1.4350 $urx=5.4150 $ury=1.4350 $lvl=3
*|S (net369:11 5.3850 0.2450) // $llx=5.3850 $lly=0.2450 $urx=5.3850 $ury=0.2450 $lvl=3
*|S (net369:12 4.3100 3.7450) // $llx=4.3100 $lly=3.7450 $urx=4.3100 $ury=3.7450 $lvl=2
*|S (net369:14 4.3100 3.3550) // $llx=4.3100 $lly=3.3550 $urx=4.3100 $ury=3.3550 $lvl=2
*|S (net369:15 4.3100 2.8950) // $llx=4.3100 $lly=2.8950 $urx=4.3100 $ury=2.8950 $lvl=2
*|S (net369:16 4.3100 2.7300) // $llx=4.3100 $lly=2.7300 $urx=4.3100 $ury=2.7300 $lvl=2
*|S (net369:17 4.3100 0.8200) // $llx=4.3100 $lly=0.8200 $urx=4.3100 $ury=0.8200 $lvl=2
*|S (net369:18 4.3100 0.6550) // $llx=4.3100 $lly=0.6550 $urx=4.3100 $ury=0.6550 $lvl=2
*|S (net369:20 4.3100 0.6050) // $llx=4.3100 $lly=0.6050 $urx=4.3100 $ury=0.6050 $lvl=2
*|S (net369:21 4.3100 0.3950) // $llx=4.3100 $lly=0.3950 $urx=4.3100 $ury=0.3950 $lvl=2
*|S (net369:22 5.5800 1.6000) // $llx=5.5800 $lly=1.6000 $urx=5.5800 $ury=1.6000 $lvl=2
*|S (net369:23 5.4150 1.6000) // $llx=5.4150 $lly=1.6000 $urx=5.4150 $ury=1.6000 $lvl=2
*|S (net369:24 4.3100 1.6000) // $llx=4.3100 $lly=1.6000 $urx=4.3100 $ury=1.6000 $lvl=2
*|S (net369:25 4.1450 1.6000) // $llx=4.1450 $lly=1.6000 $urx=4.1450 $ury=1.6000 $lvl=2
*|S (net369:26 4.3100 3.0400) // $llx=4.3100 $lly=3.0400 $urx=4.3100 $ury=3.0400 $lvl=1
*|S (net369:27 4.3100 2.8950) // $llx=4.3100 $lly=2.8950 $urx=4.3100 $ury=2.8950 $lvl=1
*|S (net369:28 4.3100 1.6000) // $llx=4.3100 $lly=1.6000 $urx=4.3100 $ury=1.6000 $lvl=1
*|S (net369:29 4.3100 0.6550) // $llx=4.3100 $lly=0.6550 $urx=4.3100 $ury=0.6550 $lvl=1
*|S (net369:30 4.3100 0.5100) // $llx=4.3100 $lly=0.5100 $urx=4.3100 $ury=0.5100 $lvl=1
CI1 Mmn8:d VSS! 7.35784e-19 $lvl=4
CI2 Mmp8:d VSS! 8.30364e-19 $lvl=4
CI3 net369:28 VSS! 9.12999e-18 $lvl=1
CI4 net369:26 VSS! 8.47155e-18 $lvl=1
CI5 net369:30 VSS! 5.40033e-18 $lvl=1
CI6 net369:8 VSS! 2.58492e-18 $lvl=3
CI7 net369:22 VSS! 7.63959e-18 $lvl=2
CI8 net369:25 VSS! 1.00001e-17 $lvl=2
CI9 net369:17 VSS! 6.14765e-18 $lvl=2
CI10 net369:21 VSS! 1.78472e-18 $lvl=2
CI11 net369:12 VSS! 2.54829e-18 $lvl=2
CI12 net369:16 VSS! 2.66713e-18 $lvl=2
CI13 net369:18 VSS! 9.80698e-19 $lvl=2
CI14 net369:24 VSS! 2.0271e-18 $lvl=2
CI15 net369:15 VSS! 1.79688e-18 $lvl=2
CI16 net369:9 VSS! 2.40356e-17 $lvl=3
CI17 net369 VSS! 1.55452e-18 $lvl=3
CI18 net369:8 net292 1.44886e-18 $lvl1=3 $lvl2=2
CI19 net369:8 net292:4 1.17269e-18 $lvl1=3 $lvl2=2
CI20 net369 net357:4 4.96808e-19 $lvl1=3 $lvl2=2
CI21 net369 net357 3.29841e-19 $lvl1=3 $lvl2=2
CI22 net369 net357:3 6.52102e-17 $lvl1=3 $lvl2=2
CI23 net369:8 net292:3 6.76132e-17 $lvl1=3 $lvl2=2
CI24 net369:26 net300 7.90024e-19 $lvl1=1 $lvl2=2
CI25 net369:12 Mmp8:s 6.39516e-19 $lvl1=2 $lvl2=4
CI26 net369:28 net300:4 2.18954e-19 $lvl1=1 $lvl2=2
CI27 net369:18 net365 1.27367e-18 $lvl1=2 $lvl2=2
CI28 net369:18 net365:4 9.35327e-19 $lvl1=2 $lvl2=2
CI29 net369:30 net365:4 8.27147e-19 $lvl1=1 $lvl2=2
CI30 net369 net365:3 3.77928e-19 $lvl1=3 $lvl2=2
CI31 net369:28 net365:3 3.12963e-19 $lvl1=1 $lvl2=2
CI32 net369:28 net365 3.07613e-19 $lvl1=1 $lvl2=2
CI33 net369:25 net365:3 2.3142e-19 $lvl1=2 $lvl2=2
CI34 Mmn8:d net365:3 2.0974e-19 $lvl1=4 $lvl2=2
CI35 net369:9 net365:3 1.86983e-19 $lvl1=3 $lvl2=2
CI36 net369:17 Mmn7:d 1.80902e-19 $lvl1=2 $lvl2=4
CI37 net369:12 net300:3 2.74044e-17 $lvl1=2 $lvl2=2
CI38 net369:17 net365 2.49681e-18 $lvl1=2 $lvl2=2
CI39 net369:18 net365:3 4.61667e-18 $lvl1=2 $lvl2=2
CI40 net369:21 net365:4 2.22485e-18 $lvl1=2 $lvl2=2
CI41 net369:15 net300:3 1.84743e-18 $lvl1=2 $lvl2=2
CI42 net369:16 net300:4 3.95547e-18 $lvl1=2 $lvl2=2
CI43 net369:21 net365:3 3.32611e-18 $lvl1=2 $lvl2=2
CI44 net369:16 net300:3 2.26601e-18 $lvl1=2 $lvl2=2
CI45 net369:30 net365 1.40168e-18 $lvl1=1 $lvl2=2
CI46 net369:26 net300:4 2.70582e-18 $lvl1=1 $lvl2=2
CI47 net369:12 net300 9.92451e-18 $lvl1=2 $lvl2=2
CI48 net369:26 net300:3 3.25282e-18 $lvl1=1 $lvl2=2
CI49 net369:30 net365:3 2.93959e-18 $lvl1=1 $lvl2=2
CI50 net369:17 net365:4 1.41323e-18 $lvl1=2 $lvl2=2
CI51 net369:15 net300:4 3.23161e-18 $lvl1=2 $lvl2=2
CI52 net369:12 net300:4 4.14138e-18 $lvl1=2 $lvl2=2
CI53 net369:17 net365:3 1.39116e-17 $lvl1=2 $lvl2=2
CI54 net369:22 net361:25 4.05141e-18 $lvl1=2 $lvl2=2
CI55 net369:9 net361:25 3.22603e-18 $lvl1=3 $lvl2=2
CI56 net369:22 net361:28 2.73655e-18 $lvl1=2 $lvl2=1
CI57 net369:22 net361:24 2.0362e-18 $lvl1=2 $lvl2=2
CI58 net369:8 net361:12 1.60468e-18 $lvl1=3 $lvl2=2
CI59 net369:26 net361:26 1.02597e-18 $lvl1=1 $lvl2=1
CI60 net369:28 net361:28 1.02481e-18 $lvl1=1 $lvl2=1
CI61 net369 VSS!:69 7.90539e-18 $lvl1=3 $lvl2=2
CI62 net369:28 VSS!:48 6.62625e-18 $lvl1=1 $lvl2=2
CI63 net369:16 VSS!:33 5.10209e-18 $lvl1=2 $lvl2=3
CI64 net369:28 VSS!:89 4.78438e-18 $lvl1=1 $lvl2=1
CI65 net369:15 VSS!:48 4.09659e-18 $lvl1=2 $lvl2=2
CI66 Mmn8:d VSS!:69 3.82639e-18 $lvl1=4 $lvl2=2
CI67 net369:28 VSS!:90 3.74368e-18 $lvl1=1 $lvl2=1
CI68 net369:22 VSS!:89 3.12153e-18 $lvl1=2 $lvl2=1
CI69 net369:30 VSS!:92 2.8512e-18 $lvl1=1 $lvl2=1
CI70 net369:9 VSS!:92 2.73735e-18 $lvl1=3 $lvl2=1
CI71 net369:26 VSS!:49 2.57312e-18 $lvl1=1 $lvl2=2
CI72 net369:21 VSS!:90 2.40241e-18 $lvl1=2 $lvl2=1
CI73 net369:30 VSS!:67 2.30253e-18 $lvl1=1 $lvl2=2
CI74 net369:26 VSS!:47 2.21088e-18 $lvl1=1 $lvl2=2
CI75 net369:22 VSS!:47 2.19768e-18 $lvl1=2 $lvl2=2
CI76 net369:21 VSS!:67 2.15106e-18 $lvl1=2 $lvl2=2
CI77 net369:16 VSS!:49 2.13285e-18 $lvl1=2 $lvl2=2
CI78 net369:9 VSS!:47 2.08741e-18 $lvl1=3 $lvl2=2
CI79 net369:9 VSS!:36 2.07966e-18 $lvl1=3 $lvl2=3
CI80 net369:12 VSS!:33 1.85925e-18 $lvl1=2 $lvl2=3
CI81 net369:25 VSS!:92 1.84897e-18 $lvl1=2 $lvl2=1
CI82 net369:18 VSS!:69 1.80143e-18 $lvl1=2 $lvl2=2
CI83 net369:30 VSS!:69 1.71635e-18 $lvl1=1 $lvl2=2
CI84 net369:8 VSS!:36 1.64297e-18 $lvl1=3 $lvl2=3
CI85 net369:8 VSS!:47 1.64037e-18 $lvl1=3 $lvl2=2
CI86 net369:30 VSS!:80 1.57282e-18 $lvl1=1 $lvl2=2
CI87 net369:12 VSS!:48 1.56134e-18 $lvl1=2 $lvl2=2
CI88 net369:17 VSS!:59 1.53207e-18 $lvl1=2 $lvl2=4
CI89 net369:18 VSS!:90 1.47825e-18 $lvl1=2 $lvl2=1
CI90 net369:16 Mmp8:g 1.44912e-18 $lvl1=2 $lvl2=3
CI91 net369:28 VSS!:49 1.44552e-18 $lvl1=1 $lvl2=2
CI92 Mmp8:d VSS!:33 1.31125e-18 $lvl1=4 $lvl2=3
CI93 net369:26 VSS!:90 1.19754e-18 $lvl1=1 $lvl2=1
CI94 net369:18 VSS!:67 1.03345e-18 $lvl1=2 $lvl2=2
CI95 net369:25 VSS!:48 9.61988e-19 $lvl1=2 $lvl2=2
CI96 net369:15 VSS!:49 9.60382e-19 $lvl1=2 $lvl2=2
CI97 net369:25 VSS!:33 7.55004e-19 $lvl1=2 $lvl2=3
CI98 net369:9 VSS!:80 7.48305e-19 $lvl1=3 $lvl2=2
CI99 net369:25 VSS!:89 6.94813e-19 $lvl1=2 $lvl2=1
CI100 net369:26 VSS!:89 6.74334e-19 $lvl1=1 $lvl2=1
CI101 net369:22 VSS!:80 6.60355e-19 $lvl1=2 $lvl2=2
CI102 net369:28 VSS!:47 6.50807e-19 $lvl1=1 $lvl2=2
CI103 net369:12 VSS!:30 5.88833e-19 $lvl1=2 $lvl2=3
CI104 net369:12 VSS!:28 5.86095e-19 $lvl1=2 $lvl2=3
CI105 net369:28 VSS!:88 5.76612e-19 $lvl1=1 $lvl2=1
CI106 net369:17 VSS!:90 5.64165e-19 $lvl1=2 $lvl2=1
CI107 net369:28 VSS!:80 5.52452e-19 $lvl1=1 $lvl2=2
CI108 net369:9 VSS!:46 5.46422e-19 $lvl1=3 $lvl2=2
CI109 net369:17 VSS!:67 5.35486e-19 $lvl1=2 $lvl2=2
CI110 net369:22 VSS!:48 5.22836e-19 $lvl1=2 $lvl2=2
CI111 net369:22 VSS!:36 5.18202e-19 $lvl1=2 $lvl2=3
CI112 net369:26 VSS!:33 5.1052e-19 $lvl1=1 $lvl2=3
CI113 net369:8 VSS!:48 4.97354e-19 $lvl1=3 $lvl2=2
CI114 net369:25 VSS!:49 4.96024e-19 $lvl1=2 $lvl2=2
CI115 net369:30 VSS!:88 4.90331e-19 $lvl1=1 $lvl2=1
CI116 net369:12 VSS!:92 4.83641e-19 $lvl1=2 $lvl2=1
CI117 net369:12 VSS!:49 4.62966e-19 $lvl1=2 $lvl2=2
CI118 net369:22 VSS!:46 4.53461e-19 $lvl1=2 $lvl2=2
CI119 Mmp8:d VSS!:30 4.43881e-19 $lvl1=4 $lvl2=3
CI120 net369:15 VSS!:33 4.34325e-19 $lvl1=2 $lvl2=3
CI121 net369:16 VSS!:30 3.80437e-19 $lvl1=2 $lvl2=3
CI122 net369:9 Mmn7:s 3.70769e-19 $lvl1=3 $lvl2=4
CI123 net369:26 VSS!:88 3.26552e-19 $lvl1=1 $lvl2=1
CI124 Mmp8:d VSS!:48 3.2136e-19 $lvl1=4 $lvl2=2
CI125 net369:8 VSS!:46 3.21283e-19 $lvl1=3 $lvl2=2
CI126 net369:9 VSS!:89 3.15194e-19 $lvl1=3 $lvl2=1
CI127 net369:28 VSS!:33 3.05444e-19 $lvl1=1 $lvl2=3
CI128 net369:24 VSS!:92 3.01923e-19 $lvl1=2 $lvl2=1
CI129 net369:18 VSS!:80 2.89864e-19 $lvl1=2 $lvl2=2
CI130 net369:9 VSS!:33 2.83108e-19 $lvl1=3 $lvl2=3
CI131 net369:30 VSS!:90 3.7163e-17 $lvl1=1 $lvl2=1
CI132 net369:26 VSS!:48 1.77343e-17 $lvl1=1 $lvl2=2
CI133 net369:17 VSS!:69 9.27806e-18 $lvl1=2 $lvl2=2
CI134 net369:12 Mmp8:g 1.31687e-16 $lvl1=2 $lvl2=3
CI135 net369:26 VSS!:92 1.01495e-17 $lvl1=1 $lvl2=1
CI136 net369:21 VSS!:69 1.25068e-17 $lvl1=2 $lvl2=2
CI137 net369:16 VSS!:48 1.87574e-17 $lvl1=2 $lvl2=2
CI138 net369 VSS!:80 6.53476e-17 $lvl1=3 $lvl2=2
CI139 net369:28 VSS!:92 1.27623e-17 $lvl1=1 $lvl2=1
CI140 net369:22 VSS!:92 2.01857e-17 $lvl1=2 $lvl2=1
CI141 net369:30 VSS!:89 8.95258e-18 $lvl1=1 $lvl2=1
ReI355 net369:26 net369:27 0.078804 $metal1  $L=0.145 $W=0.230000 $SI_W=0.23 $TYPE=10 $DIR=1 $LLX=4.195000 $LLY=2.895000 $URX=4.425000 $URY=3.040000 $lvl=1
ReI356 net369:27 net369:28 0.703804 $metal1  $L=1.295 $W=0.230000 $SI_W=0.23 $TYPE=10 $DIR=1 $LLX=4.195000 $LLY=1.600000 $URX=4.425000 $URY=2.895000 $lvl=1
ReI357 net369:28 net369:29 0.513587 $metal1  $L=0.945 $W=0.230000 $SI_W=0.23 $TYPE=10 $DIR=1 $LLX=4.195000 $LLY=0.655000 $URX=4.425000 $URY=1.600000 $lvl=1
ReI358 net369:29 net369:30 0.078804 $metal1  $L=0.145 $W=0.230000 $SI_W=0.23 $TYPE=10 $DIR=1 $LLX=4.195000 $LLY=0.510000 $URX=4.425000 $URY=0.655000 $lvl=1
RfI359 net369:12 net369:14 29.364706 $li  $L=0.39 $W=0.170000 $SI_W=0.17 $TYPE=10 $DIR=1 $LLX=4.225000 $LLY=3.355000 $URX=4.395000 $URY=3.745000 $lvl=2
RfI360 net369:14 net369:15 34.635296 $li  $L=0.46 $W=0.170000 $SI_W=0.17 $TYPE=10 $DIR=1 $LLX=4.225000 $LLY=2.895000 $URX=4.395000 $URY=3.355000 $lvl=2
RfI361 net369:15 net369:16 12.423529 $li  $L=0.165 $W=0.170000 $SI_W=0.17 $TYPE=10 $DIR=1 $LLX=4.225000 $LLY=2.730000 $URX=4.395000 $URY=2.895000 $lvl=2
RfI362 net369:17 net369:18 12.423529 $li  $L=0.165 $W=0.170000 $SI_W=0.17 $TYPE=10 $DIR=1 $LLX=4.225000 $LLY=0.655000 $URX=4.395000 $URY=0.820000 $lvl=2
RfI363 net369:18 net369:20 3.764706 $li  $L=0.05 $W=0.170000 $SI_W=0.17 $TYPE=10 $DIR=1 $LLX=4.225000 $LLY=0.605000 $URX=4.395000 $URY=0.655000 $lvl=2
RfI364 net369:20 net369:21 15.811765 $li  $L=0.21 $W=0.170000 $SI_W=0.17 $TYPE=10 $DIR=1 $LLX=4.225000 $LLY=0.395000 $URX=4.395000 $URY=0.605000 $lvl=2
RfI365 net369:22 net369:23 12.423529 $li  $L=0.165 $W=0.170000 $SI_W=0.17 $TYPE=10 $DIR=0 $LLX=5.415000 $LLY=1.515000 $URX=5.580000 $URY=1.685000 $lvl=2
RfI366 net369:23 net369:24 83.199997 $li  $L=1.105 $W=0.170000 $SI_W=0.17 $TYPE=10 $DIR=0 $LLX=4.310000 $LLY=1.515000 $URX=5.415000 $URY=1.685000 $lvl=2
RfI367 net369:24 net369:25 12.423529 $li  $L=0.165 $W=0.170000 $SI_W=0.17 $TYPE=10 $DIR=0 $LLX=4.145000 $LLY=1.515000 $URX=4.310000 $URY=1.685000 $lvl=2
RgI368 net369:8 Mmp9:g 173.519989 $poly  $L=0.54 $W=0.150000 $SI_W=0.15 $TYPE=10 $DIR=1 $LLX=5.310000 $LLY=3.355000 $URX=5.460000 $URY=3.895000 $lvl=3
RgI369 Mmp9:g net369:9 540.375549 $poly  $L=1.755 $W=0.150000 $SI_W=0.15 $TYPE=10 $DIR=1 $LLX=5.310000 $LLY=1.600000 $URX=5.460000 $URY=3.355000 $lvl=3
RgI370 net369:9 net369:10 34.134449 $poly  $L=0.1645 $W=0.270000 $SI_W=0.27 $TYPE=10 $DIR=1 $LLX=5.280000 $LLY=1.435500 $URX=5.550000 $URY=1.600000 $lvl=3
RgI371 net369:10 net369 265.947968 $poly  $L=0.8275 $W=0.150000 $SI_W=0.15 $TYPE=10 $DIR=1 $LLX=5.310000 $LLY=0.607500 $URX=5.460000 $URY=1.435000 $lvl=3
RgI372 net369 net369:11 116.483322 $poly  $L=0.3625 $W=0.150000 $SI_W=0.15 $TYPE=10 $DIR=1 $LLX=5.310000 $LLY=0.245000 $URX=5.460000 $URY=0.607500 $lvl=3
RhI373 Mmn8:d net369:20 15.000000 $licon_diff  $L=0.17 $W=0.17 $A=0.0289 $VC=0 $SAVL=0 $SAVC=0 $SI_A=0.0289 $COVER_DIR=0 $LLX=0.000000 $LLY=0.000000 $URX=0.170000 $URY=0.170000 $lvl=5
Rh_2_I374 Mmp8:d net369:14 7.500000 $licon_diff  $A=0.0578 $VC=0 $SAVL=0 $SAVC=0 $SI_A=0.0578 $COVER_DIR=0 $LLX=0.000000 $LLY=0.000000 $URX=-0.057800 $URY=-2.000000 $lvl=5
RjI375 net369:15 net369:27 152.000000 $mcon  $L=0.17 $W=0.17 $A=0.0289 $VC=0 $SAVL=0 $SAVC=0 $SI_A=0.0289 $COVER_DIR=0 $LLX=0.000000 $LLY=0.000000 $URX=0.170000 $URY=0.170000 $lvl=6
RjI376 net369:24 net369:28 152.000000 $mcon  $L=0.17 $W=0.17 $A=0.0289 $VC=0 $SAVL=0 $SAVC=0 $SI_A=0.0289 $COVER_DIR=0 $LLX=0.000000 $LLY=0.000000 $URX=0.170000 $URY=0.170000 $lvl=6
RjI377 net369:18 net369:29 152.000000 $mcon  $L=0.17 $W=0.17 $A=0.0289 $VC=0 $SAVL=0 $SAVC=0 $SI_A=0.0289 $COVER_DIR=0 $LLX=0.000000 $LLY=0.000000 $URX=0.170000 $URY=0.170000 $lvl=6
RiI378 net369:9 net369:23 15.000000 $licon  $L=0.17 $W=0.17 $A=0.0289 $VC=0 $SAVL=0 $SAVC=0 $SI_A=0.0289 $COVER_DIR=0 $LLX=0.000000 $LLY=0.000000 $URX=0.170000 $URY=0.170000 $lvl=7
RmwI379 Mmn9:g net369 0.001000 $poly $W=1000000 $SI_W=1000000 $TYPE=1 $DIR=0
*
*|NET net333 4.82791e-15
*|I (Mmp16@1:g Mmp16@1 g X 0 9.4350 3.0150) // $llx=9.4350 $lly=3.0150 $urx=9.4350 $ury=3.0150 $lvl=3
*|I (Mmp16:g Mmp16 g X 0 9.8650 3.0150) // $llx=9.8650 $lly=3.0150 $urx=9.8650 $ury=3.0150 $lvl=3
*|I (Mmp16@3:g Mmp16@3 g X 0 10.2950 3.0150) // $llx=10.2950 $lly=3.0150 $urx=10.2950 $ury=3.0150 $lvl=3
*|I (Mmp16@2:g Mmp16@2 g X 0 10.7250 3.0150) // $llx=10.7250 $lly=3.0150 $urx=10.7250 $ury=3.0150 $lvl=3
*|I (Mmp15:d Mmp15 d X 0 8.9295 3.0150) // $llx=8.9295 $lly=3.0150 $urx=8.9295 $ury=3.0150 $lvl=4
*|I (Mmn16@1:g Mmn16@1 g X 0 9.4350 0.7750) // $llx=9.4350 $lly=0.7750 $urx=9.4350 $ury=0.7750 $lvl=3
*|I (Mmn16:g Mmn16 g X 0 9.8650 0.7750) // $llx=9.8650 $lly=0.7750 $urx=9.8650 $ury=0.7750 $lvl=3
*|I (Mmn16@3:g Mmn16@3 g X 0 10.2950 0.7750) // $llx=10.2950 $lly=0.7750 $urx=10.2950 $ury=0.7750 $lvl=3
*|I (Mmn16@2:g Mmn16@2 g X 0 10.7250 0.7750) // $llx=10.7250 $lly=0.7750 $urx=10.7250 $ury=0.7750 $lvl=3
*|I (Mmn15:d Mmn15 d X 0 8.9295 0.7750) // $llx=8.9295 $lly=0.7750 $urx=8.9295 $ury=0.7750 $lvl=4
*|S (net333 9.4350 0.7750) // $llx=9.4350 $lly=0.7750 $urx=9.4350 $ury=0.7750 $lvl=3
*|S (net333:29 10.7250 3.8950) // $llx=10.7250 $lly=3.8950 $urx=10.7250 $ury=3.8950 $lvl=3
*|S (net333:30 10.7250 1.7750) // $llx=10.7250 $lly=1.7750 $urx=10.7250 $ury=1.7750 $lvl=3
*|S (net333:31 10.2950 1.7750) // $llx=10.2950 $lly=1.7750 $urx=10.2950 $ury=1.7750 $lvl=3
*|S (net333:32 10.0800 1.7750) // $llx=10.0800 $lly=1.7750 $urx=10.0800 $ury=1.7750 $lvl=3
*|S (net333:33 9.8650 1.7750) // $llx=9.8650 $lly=1.7750 $urx=9.8650 $ury=1.7750 $lvl=3
*|S (net333:34 9.4350 1.7750) // $llx=9.4350 $lly=1.7750 $urx=9.4350 $ury=1.7750 $lvl=3
*|S (net333:35 10.7250 0.2450) // $llx=10.7250 $lly=0.2450 $urx=10.7250 $ury=0.2450 $lvl=3
*|S (net333:36 10.2950 0.2450) // $llx=10.2950 $lly=0.2450 $urx=10.2950 $ury=0.2450 $lvl=3
*|S (net333:37 10.2950 3.8950) // $llx=10.2950 $lly=3.8950 $urx=10.2950 $ury=3.8950 $lvl=3
*|S (net333:38 9.8650 0.2450) // $llx=9.8650 $lly=0.2450 $urx=9.8650 $ury=0.2450 $lvl=3
*|S (net333:39 9.8650 3.8950) // $llx=9.8650 $lly=3.8950 $urx=9.8650 $ury=3.8950 $lvl=3
*|S (net333:40 9.4350 3.8950) // $llx=9.4350 $lly=3.8950 $urx=9.4350 $ury=3.8950 $lvl=3
*|S (net333:41 9.4350 0.2450) // $llx=9.4350 $lly=0.2450 $urx=9.4350 $ury=0.2450 $lvl=3
*|S (net333:42 8.7900 3.7450) // $llx=8.7900 $lly=3.7450 $urx=8.7900 $ury=3.7450 $lvl=2
*|S (net333:44 8.7900 3.0150) // $llx=8.7900 $lly=3.0150 $urx=8.7900 $ury=3.0150 $lvl=2
*|S (net333:45 8.7900 2.7150) // $llx=8.7900 $lly=2.7150 $urx=8.7900 $ury=2.7150 $lvl=2
*|S (net333:46 8.7900 2.2850) // $llx=8.7900 $lly=2.2850 $urx=8.7900 $ury=2.2850 $lvl=2
*|S (net333:47 8.7900 1.1550) // $llx=8.7900 $lly=1.1550 $urx=8.7900 $ury=1.1550 $lvl=2
*|S (net333:48 8.7900 0.8100) // $llx=8.7900 $lly=0.8100 $urx=8.7900 $ury=0.8100 $lvl=2
*|S (net333:50 8.7900 0.7750) // $llx=8.7900 $lly=0.7750 $urx=8.7900 $ury=0.7750 $lvl=2
*|S (net333:51 8.7900 0.3950) // $llx=8.7900 $lly=0.3950 $urx=8.7900 $ury=0.3950 $lvl=2
*|S (net333:52 10.6950 1.7750) // $llx=10.6950 $lly=1.7750 $urx=10.6950 $ury=1.7750 $lvl=2
*|S (net333:53 10.0800 1.7750) // $llx=10.0800 $lly=1.7750 $urx=10.0800 $ury=1.7750 $lvl=2
*|S (net333:54 8.7900 1.7750) // $llx=8.7900 $lly=1.7750 $urx=8.7900 $ury=1.7750 $lvl=2
*|S (net333:55 8.6250 1.7750) // $llx=8.6250 $lly=1.7750 $urx=8.6250 $ury=1.7750 $lvl=2
*|S (net333:56 8.7900 3.0400) // $llx=8.7900 $lly=3.0400 $urx=8.7900 $ury=3.0400 $lvl=1
*|S (net333:57 8.7900 2.7150) // $llx=8.7900 $lly=2.7150 $urx=8.7900 $ury=2.7150 $lvl=1
*|S (net333:58 8.7900 1.7750) // $llx=8.7900 $lly=1.7750 $urx=8.7900 $ury=1.7750 $lvl=1
*|S (net333:59 8.7900 0.8100) // $llx=8.7900 $lly=0.8100 $urx=8.7900 $ury=0.8100 $lvl=1
*|S (net333:60 8.7900 0.4850) // $llx=8.7900 $lly=0.4850 $urx=8.7900 $ury=0.4850 $lvl=1
CM1 Mmn15:d VSS! 1.20252e-18 $lvl=4
CM2 Mmn16@2:g VSS! 2.53429e-18 $lvl=3
CM3 Mmn16@3:g VSS! 2.81915e-18 $lvl=3
CM4 Mmp15:d VSS! 3.29927e-18 $lvl=4
CM5 net333:59 VSS! 7.51047e-18 $lvl=1
CM6 net333:58 VSS! 7.9592e-18 $lvl=1
CM7 net333:57 VSS! 7.44807e-18 $lvl=1
CM8 net333:56 VSS! 4.96767e-18 $lvl=1
CM9 net333:60 VSS! 3.40688e-18 $lvl=1
CM10 net333:29 VSS! 2.4157e-18 $lvl=3
CM11 net333:37 VSS! 2.10722e-18 $lvl=3
CM12 net333:39 VSS! 1.822e-18 $lvl=3
CM13 net333:40 VSS! 2.71359e-18 $lvl=3
CM14 net333:38 VSS! 1.99049e-18 $lvl=3
CM15 net333:53 VSS! 6.58487e-18 $lvl=2
CM16 net333:55 VSS! 9.05063e-18 $lvl=2
CM17 net333:47 VSS! 1.0506e-17 $lvl=2
CM18 net333:51 VSS! 9.5381e-19 $lvl=2
CM19 net333:42 VSS! 8.49833e-18 $lvl=2
CM20 net333:46 VSS! 4.57025e-18 $lvl=2
CM21 net333:48 VSS! 1.76455e-18 $lvl=2
CM22 net333:54 VSS! 4.1313e-18 $lvl=2
CM23 net333:45 VSS! 2.98551e-18 $lvl=2
CM24 net333:32 VSS! 4.03484e-17 $lvl=3
CM25 net333 VSS! 2.16382e-18 $lvl=3
CM26 net333:47 VSS!:65 9.91357e-18 $lvl1=2 $lvl2=2
CM27 net333 VSS!:65 9.27717e-18 $lvl1=3 $lvl2=2
CM28 net333:59 VSS!:74 9.25345e-18 $lvl1=1 $lvl2=2
CM29 Mmn16@3:g VSS!:57 7.41216e-18 $lvl1=3 $lvl2=2
CM30 net333:42 VSS!:42 5.90555e-18 $lvl1=2 $lvl2=3
CM31 net333:32 VSS!:64 5.60574e-18 $lvl1=3 $lvl2=2
CM32 net333:42 VSS!:43 4.98044e-18 $lvl1=2 $lvl2=2
CM33 net333:53 VSS!:64 4.83262e-18 $lvl1=2 $lvl2=2
CM34 net333:51 VSS!:74 4.42629e-18 $lvl1=2 $lvl2=2
CM35 Mmn16@2:g VSS!:57 4.23191e-18 $lvl1=3 $lvl2=2
CM36 net333:38 VSS!:65 4.11685e-18 $lvl1=3 $lvl2=2
CM37 net333:38 VSS!:57 3.63576e-18 $lvl1=3 $lvl2=2
CM38 Mmn16@2:g VSS!:56 3.56084e-18 $lvl1=3 $lvl2=2
CM39 net333:53 VSS!:53 3.34151e-18 $lvl1=2 $lvl2=2
CM40 net333:32 VSS!:53 3.23343e-18 $lvl1=3 $lvl2=2
CM41 Mmn15:d VSS!:65 3.12979e-18 $lvl1=4 $lvl2=2
CM42 net333:48 VSS!:65 3.09727e-18 $lvl1=2 $lvl2=2
CM43 net333:53 VSS!:74 2.61246e-18 $lvl1=2 $lvl2=2
CM44 net333:48 VSS!:88 2.41365e-18 $lvl1=2 $lvl2=1
CM45 net333:51 VSS!:58 2.36224e-18 $lvl1=2 $lvl2=2
CM46 net333:51 VSS!:88 1.98045e-18 $lvl1=2 $lvl2=1
CM47 net333:58 VSS!:88 1.57903e-18 $lvl1=1 $lvl2=1
CM48 net333:48 VSS!:58 1.50959e-18 $lvl1=2 $lvl2=2
CM49 net333:32 VSS!:74 1.47869e-18 $lvl1=3 $lvl2=2
CM50 net333:60 VSS!:65 1.44872e-18 $lvl1=1 $lvl2=2
CM51 net333:42 VSS!:40 1.42739e-18 $lvl1=2 $lvl2=3
CM52 net333:46 VSS!:43 1.40076e-18 $lvl1=2 $lvl2=2
CM53 net333:57 VSS!:43 1.35635e-18 $lvl1=1 $lvl2=2
CM54 net333:60 VSS!:58 1.29613e-18 $lvl1=1 $lvl2=2
CM55 net333:47 VSS!:59 1.20193e-18 $lvl1=2 $lvl2=4
CM56 net333:55 VSS!:42 1.18281e-18 $lvl1=2 $lvl2=3
CM57 net333:58 VSS!:74 1.15809e-18 $lvl1=1 $lvl2=2
CM58 net333:59 VSS!:65 1.0369e-18 $lvl1=1 $lvl2=2
CM59 net333:57 VSS!:88 1.00794e-18 $lvl1=1 $lvl2=1
CM60 net333:48 VSS!:74 1.52113e-17 $lvl1=2 $lvl2=2
CM61 net333:59 VSS!:88 1.9369e-17 $lvl1=1 $lvl2=1
CM62 net333:47 VSS!:74 3.70536e-17 $lvl1=2 $lvl2=2
CM63 Mmn16@2:g VSS!:53 1.34944e-16 $lvl1=3 $lvl2=2
CM64 net333:51 VSS!:65 1.33997e-17 $lvl1=2 $lvl2=2
CM65 net333:38 VSS!:64 1.34506e-16 $lvl1=3 $lvl2=2
CM66 Mmn16@3:g VSS!:64 1.28571e-16 $lvl1=3 $lvl2=2
CM67 net333:60 VSS!:88 2.19702e-17 $lvl1=1 $lvl2=1
CM68 net333 VSS!:74 1.28319e-16 $lvl1=3 $lvl2=2
ReM455 net333:56 net333:57 0.176630 $metal1  $L=0.325 $W=0.230000 $SI_W=0.23 $TYPE=10 $DIR=1 $LLX=8.675000 $LLY=2.715000 $URX=8.905000 $URY=3.040000 $lvl=1
ReM456 net333:57 net333:58 0.510870 $metal1  $L=0.94 $W=0.230000 $SI_W=0.23 $TYPE=10 $DIR=1 $LLX=8.675000 $LLY=1.775000 $URX=8.905000 $URY=2.715000 $lvl=1
ReM457 net333:58 net333:59 0.524457 $metal1  $L=0.965 $W=0.230000 $SI_W=0.23 $TYPE=10 $DIR=1 $LLX=8.675000 $LLY=0.810000 $URX=8.905000 $URY=1.775000 $lvl=1
ReM458 net333:59 net333:60 0.176630 $metal1  $L=0.325 $W=0.230000 $SI_W=0.23 $TYPE=10 $DIR=1 $LLX=8.675000 $LLY=0.485000 $URX=8.905000 $URY=0.810000 $lvl=1
RfM459 net333:42 net333:44 54.964703 $li  $L=0.73 $W=0.170000 $SI_W=0.17 $TYPE=10 $DIR=1 $LLX=8.705000 $LLY=3.015000 $URX=8.875000 $URY=3.745000 $lvl=2
RfM460 net333:44 net333:45 7.245283 $li  $L=0.3 $W=0.170000 $SI_W=0.53 $TYPE=10 $DIR=1 $LLX=8.705000 $LLY=2.715000 $URX=8.875000 $URY=3.015000 $lvl=2
RfM461 net333:45 net333:46 32.376472 $li  $L=0.43 $W=0.170000 $SI_W=0.17 $TYPE=10 $DIR=1 $LLX=8.705000 $LLY=2.285000 $URX=8.875000 $URY=2.715000 $lvl=2
RfM462 net333:47 net333:48 25.976471 $li  $L=0.345 $W=0.170000 $SI_W=0.17 $TYPE=10 $DIR=1 $LLX=8.705000 $LLY=0.810000 $URX=8.875000 $URY=1.155000 $lvl=2
RfM463 net333:48 net333:50 0.923711 $li  $L=0.035 $W=0.170000 $SI_W=0.485 $TYPE=10 $DIR=1 $LLX=8.705000 $LLY=0.775000 $URX=8.875000 $URY=0.810000 $lvl=2
RfM464 net333:50 net333:51 28.611765 $li  $L=0.38 $W=0.170000 $SI_W=0.17 $TYPE=10 $DIR=1 $LLX=8.705000 $LLY=0.395000 $URX=8.875000 $URY=0.775000 $lvl=2
RfM465 net333:52 net333:53 46.305885 $li  $L=0.615 $W=0.170000 $SI_W=0.17 $TYPE=10 $DIR=0 $LLX=10.080000 $LLY=1.690000 $URX=10.695000 $URY=1.860000 $lvl=2
RfM466 net333:53 net333:54 97.129410 $li  $L=1.29 $W=0.170000 $SI_W=0.17 $TYPE=10 $DIR=0 $LLX=8.790000 $LLY=1.690000 $URX=10.080000 $URY=1.860000 $lvl=2
RfM467 net333:54 net333:55 12.423529 $li  $L=0.165 $W=0.170000 $SI_W=0.17 $TYPE=10 $DIR=0 $LLX=8.625000 $LLY=1.690000 $URX=8.790000 $URY=1.860000 $lvl=2
RgM468 net333:29 Mmp16@2:g 282.773346 $poly  $L=0.88 $W=0.150000 $SI_W=0.15 $TYPE=10 $DIR=1 $LLX=10.650000 $LLY=3.015000 $URX=10.800000 $URY=3.895000 $lvl=3
RgM469 Mmp16@2:g net333:30 398.373016 $poly  $L=1.23975 $W=0.150000 $SI_W=0.15 $TYPE=10 $DIR=1 $LLX=10.650000 $LLY=1.775000 $URX=10.800000 $URY=3.015000 $lvl=3
RgM470 net333:30 net333:31 76.762962 $poly  $L=0.43 $W=0.270000 $SI_W=0.27 $TYPE=10 $DIR=0 $LLX=10.295000 $LLY=1.640000 $URX=10.725000 $URY=1.910000 $lvl=3
RgM471 net333:31 net333:32 38.426109 $poly  $L=0.21525 $W=0.270000 $SI_W=0.27 $TYPE=10 $DIR=0 $LLX=10.080000 $LLY=1.640000 $URX=10.295000 $URY=1.910000 $lvl=3
RgM472 net333:32 net333:33 38.336849 $poly  $L=0.21475 $W=0.270000 $SI_W=0.27 $TYPE=10 $DIR=0 $LLX=9.865000 $LLY=1.640000 $URX=10.080000 $URY=1.910000 $lvl=3
RgM473 net333:33 net333:34 76.762962 $poly  $L=0.43 $W=0.270000 $SI_W=0.27 $TYPE=10 $DIR=0 $LLX=9.435000 $LLY=1.640000 $URX=9.865000 $URY=1.910000 $lvl=3
RgM474 net333:34 net333 321.413666 $poly  $L=1.00025 $W=0.150000 $SI_W=0.15 $TYPE=10 $DIR=1 $LLX=9.360000 $LLY=0.775000 $URX=9.510000 $URY=1.775000 $lvl=3
RgM475 net333:30 Mmn16@2:g 321.413666 $poly  $L=1.00025 $W=0.150000 $SI_W=0.15 $TYPE=10 $DIR=1 $LLX=10.650000 $LLY=0.775000 $URX=10.800000 $URY=1.775000 $lvl=3
RgM476 Mmn16@2:g net333:35 170.306671 $poly  $L=0.53 $W=0.150000 $SI_W=0.15 $TYPE=10 $DIR=1 $LLX=10.650000 $LLY=0.245000 $URX=10.800000 $URY=0.775000 $lvl=3
RgM477 net333:31 Mmn16@3:g 302.097961 $poly  $L=1.00025 $W=0.150000 $SI_W=0.15 $TYPE=10 $DIR=1 $LLX=10.220000 $LLY=0.775000 $URX=10.370000 $URY=1.775000 $lvl=3
RgM478 Mmn16@3:g net333:36 170.306671 $poly  $L=0.53 $W=0.150000 $SI_W=0.15 $TYPE=10 $DIR=1 $LLX=10.220000 $LLY=0.245000 $URX=10.370000 $URY=0.775000 $lvl=3
RgM479 net333:31 Mmp16@3:g 379.128723 $poly  $L=1.23975 $W=0.150000 $SI_W=0.15 $TYPE=10 $DIR=1 $LLX=10.220000 $LLY=1.775000 $URX=10.370000 $URY=3.015000 $lvl=3
RgM480 Mmp16@3:g net333:37 282.773346 $poly  $L=0.88 $W=0.150000 $SI_W=0.15 $TYPE=10 $DIR=1 $LLX=10.220000 $LLY=3.015000 $URX=10.370000 $URY=3.895000 $lvl=3
RgM481 net333:33 Mmn16:g 302.097961 $poly  $L=1.00025 $W=0.150000 $SI_W=0.15 $TYPE=10 $DIR=1 $LLX=9.790000 $LLY=0.775000 $URX=9.940000 $URY=1.775000 $lvl=3
RgM482 Mmn16:g net333:38 170.306671 $poly  $L=0.53 $W=0.150000 $SI_W=0.15 $TYPE=10 $DIR=1 $LLX=9.790000 $LLY=0.245000 $URX=9.940000 $URY=0.775000 $lvl=3
RgM483 net333:33 Mmp16:g 379.128723 $poly  $L=1.23975 $W=0.150000 $SI_W=0.15 $TYPE=10 $DIR=1 $LLX=9.790000 $LLY=1.775000 $URX=9.940000 $URY=3.015000 $lvl=3
RgM484 Mmp16:g net333:39 282.773346 $poly  $L=0.88 $W=0.150000 $SI_W=0.15 $TYPE=10 $DIR=1 $LLX=9.790000 $LLY=3.015000 $URX=9.940000 $URY=3.895000 $lvl=3
RgM485 net333:34 Mmp16@1:g 398.373016 $poly  $L=1.23975 $W=0.150000 $SI_W=0.15 $TYPE=10 $DIR=1 $LLX=9.360000 $LLY=1.775000 $URX=9.510000 $URY=3.015000 $lvl=3
RgM486 Mmp16@1:g net333:40 282.773346 $poly  $L=0.88 $W=0.150000 $SI_W=0.15 $TYPE=10 $DIR=1 $LLX=9.360000 $LLY=3.015000 $URX=9.510000 $URY=3.895000 $lvl=3
RgM487 net333 net333:41 170.306671 $poly  $L=0.53 $W=0.150000 $SI_W=0.15 $TYPE=10 $DIR=1 $LLX=9.360000 $LLY=0.245000 $URX=9.510000 $URY=0.775000 $lvl=3
RhM488 Mmn15:d net333:50 7.500000 $licon_diff  $A=0.0578 $VC=0 $SAVL=0 $SAVC=0 $SI_A=0.0578 $COVER_DIR=0 $LLX=0.000000 $LLY=0.000000 $URX=-0.057800 $URY=-2.000000 $lvl=5
Rh_2_M489 Mmp15:d net333:44 3.750000 $licon_diff  $A=0.1156 $VC=0 $SAVL=0 $SAVC=0 $SI_A=0.1156 $COVER_DIR=0 $LLX=0.000000 $LLY=0.000000 $URX=-0.115600 $URY=-4.000000 $lvl=5
RjM490 net333:45 net333:57 76.000000 $mcon  $A=0.0578 $VC=0 $SAVL=0 $SAVC=0 $SI_A=0.0578 $COVER_DIR=0 $LLX=0.000000 $LLY=0.000000 $URX=-0.057800 $URY=-2.000000 $lvl=6
RjM491 net333:54 net333:58 152.000000 $mcon  $L=0.17 $W=0.17 $A=0.0289 $VC=0 $SAVL=0 $SAVC=0 $SI_A=0.0289 $COVER_DIR=0 $LLX=0.000000 $LLY=0.000000 $URX=0.170000 $URY=0.170000 $lvl=6
RjM492 net333:48 net333:59 76.000000 $mcon  $A=0.0578 $VC=0 $SAVL=0 $SAVC=0 $SI_A=0.0578 $COVER_DIR=0 $LLX=0.000000 $LLY=0.000000 $URX=-0.057800 $URY=-2.000000 $lvl=6
RiM493 net333:32 net333:53 5.000000 $licon  $A=0.0867 $VC=0 $SAVL=0 $SAVC=0 $SI_A=0.0867 $COVER_DIR=0 $LLX=0.000000 $LLY=0.000000 $URX=-0.086700 $URY=-3.000000 $lvl=7
RmwM494 Mmn16@1:g net333 0.001000 $poly $W=1000000 $SI_W=1000000 $TYPE=1 $DIR=0
*
*|NET net345 2.05423e-15
*|I (Mmp14:d Mmp14 d X 0 8.1305 3.3550) // $llx=8.1305 $lly=3.3550 $urx=8.1305 $ury=3.3550 $lvl=4
*|I (Mmp15:g Mmp15 g X 0 9.0050 3.0150) // $llx=9.0050 $lly=3.0150 $urx=9.0050 $ury=3.0150 $lvl=3
*|I (Mmn14:d Mmn14 d X 0 8.1305 0.6075) // $llx=8.1305 $lly=0.6075 $urx=8.1305 $ury=0.6075 $lvl=4
*|I (Mmn15:g Mmn15 g X 0 9.0050 0.7750) // $llx=9.0050 $lly=0.7750 $urx=9.0050 $ury=0.7750 $lvl=3
*|S (net345 9.0050 0.7750) // $llx=9.0050 $lly=0.7750 $urx=9.0050 $ury=0.7750 $lvl=3
*|S (net345:8 9.0050 3.8950) // $llx=9.0050 $lly=3.8950 $urx=9.0050 $ury=3.8950 $lvl=3
*|S (net345:9 9.0050 1.4350) // $llx=9.0050 $lly=1.4350 $urx=9.0050 $ury=1.4350 $lvl=3
*|S (net345:10 9.0050 1.2700) // $llx=9.0050 $lly=1.2700 $urx=9.0050 $ury=1.2700 $lvl=3
*|S (net345:11 9.0050 0.2450) // $llx=9.0050 $lly=0.2450 $urx=9.0050 $ury=0.2450 $lvl=3
*|S (net345:12 8.2700 3.7450) // $llx=8.2700 $lly=3.7450 $urx=8.2700 $ury=3.7450 $lvl=2
*|S (net345:14 8.2700 3.3550) // $llx=8.2700 $lly=3.3550 $urx=8.2700 $ury=3.3550 $lvl=2
*|S (net345:15 8.2700 2.8950) // $llx=8.2700 $lly=2.8950 $urx=8.2700 $ury=2.8950 $lvl=2
*|S (net345:16 8.2700 2.7300) // $llx=8.2700 $lly=2.7300 $urx=8.2700 $ury=2.7300 $lvl=2
*|S (net345:17 8.2700 0.8200) // $llx=8.2700 $lly=0.8200 $urx=8.2700 $ury=0.8200 $lvl=2
*|S (net345:18 8.2700 0.6550) // $llx=8.2700 $lly=0.6550 $urx=8.2700 $ury=0.6550 $lvl=2
*|S (net345:20 8.2700 0.6050) // $llx=8.2700 $lly=0.6050 $urx=8.2700 $ury=0.6050 $lvl=2
*|S (net345:21 8.2700 0.3950) // $llx=8.2700 $lly=0.3950 $urx=8.2700 $ury=0.3950 $lvl=2
*|S (net345:22 9.1900 1.4350) // $llx=9.1900 $lly=1.4350 $urx=9.1900 $ury=1.4350 $lvl=2
*|S (net345:23 9.0050 1.4350) // $llx=9.0050 $lly=1.4350 $urx=9.0050 $ury=1.4350 $lvl=2