*
*|DSPF 1.5
*
*|DATE "Wed Jan  8 21:31:55 2025"
*|VENDOR "Cadence Design Systems"
*|PROGRAM "Cadence Quantus Extraction"
*|VERSION "22.1.0-p089 Linux 64 bit - (Thu Jan 19 11:47:08 PST 2023)"
*|DESIGN INVX16_HS
*|DIVIDER /
*|DELIMITER :
*|DeviceFingerDelim "@"
*|BUSBIT []
*|GLOBAL_TEMPERATURE 25
*|OPERATING_TEMPERATURE 25

** *VIA_COVERAGE_CODES
** *index FF FS FP FU SF SS SP SU PF PS PP PU UF US UP UU X_by_Y
** * "FF" stands for Full landing and Full coverage
** *0 0 0 0 0 0 0 0 0 0 0 0 0 0 0 0 0
** *1 0 0 0 0 0 0 0 0 0 0 0 0 0 0 0 1 1x1
** *2 0 0 0 0 0 0 0 0 0 0 0 0 0 0 1 0 1x1
** *3 0 0 0 0 0 0 0 0 0 0 0 0 0 1 0 0 1x1
** *4 0 0 0 0 0 0 0 0 0 0 0 0 1 0 0 0 1x1
** *5 0 0 0 0 0 0 0 0 0 0 0 1 0 0 0 0 1x1
** *6 0 0 0 0 0 0 0 0 0 0 1 0 0 0 0 0 1x1
** *7 0 0 0 0 0 0 0 0 0 1 0 0 0 0 0 0 1x1
** *8 0 0 0 0 0 0 0 0 1 0 0 0 0 0 0 0 1x1
** *9 0 0 0 0 0 0 0 1 0 0 0 0 0 0 0 0 1x1
** *10 0 0 0 0 0 0 1 0 0 0 0 0 0 0 0 0 1x1
** *11 0 0 0 0 0 1 0 0 0 0 0 0 0 0 0 0 1x1
** *12 0 0 0 0 1 0 0 0 0 0 0 0 0 0 0 0 1x1
** *13 0 0 0 1 0 0 0 0 0 0 0 0 0 0 0 0 1x1
** *14 0 0 1 0 0 0 0 0 0 0 0 0 0 0 0 0 1x1
** *15 0 1 0 0 0 0 0 0 0 0 0 0 0 0 0 0 1x1
** *16 1 0 0 0 0 0 0 0 0 0 0 0 0 0 0 0 1x1

** *RESISTOR_TYPES
** *1 SHORTING_ELEMENT
** *2 PRES_NG
** *3 PRES_PG
** *4 PRES_NF
** *5 PRES_PF
** *6 TCN_NDIFF
** *7 TCN_PDIFF
** *8 TCN_NFIELD
** *9 TCN_PFIELD
** *10 QUALITY_EXTRACTED
** *11 GCNLAND
** *12 TCNLAND
** *13 DUMMY
** *14 RSD
** *15 BRIDGE

** *RESISTOR_CURRENT_DIRECTION
** *0 HORIZONTAL
** *1 VERTICAL
** *2 45 DEGREE

** QRC_TECH_DIR /vols/wfo_devel/projects/reference_SKY130/tech/sky130_release_0.0.4/quantus/extraction/typical 
** HIERARCHICAL_SPLIT_PINS_DELIMITER '%'
** caps2d version: 10
*
.SUBCKT  INVX16_HS A Y
*
*Net Section
*
*|GROUND_NET VSS!
*
*LAYER_MAP
*0 none
*1 metal1
*2 li
*3 poly
*4 diff
*5 licon_diff
*6 mcon
*7 licon
*8 FOX

*|NET A 1.38817e-14
*|P (A X 0 0.4750 2.0600) // $llx=0.4750 $lly=2.0600 $urx=0.4750 $ury=2.0600 $lvl=1
*|I (Mmp0:g Mmp0 g X 0 0.4750 3.0150) // $llx=0.4750 $lly=3.0150 $urx=0.4750 $ury=3.0150 $lvl=3
*|I (Mmp0@1:g Mmp0@1 g X 0 0.9050 3.0150) // $llx=0.9050 $lly=3.0150 $urx=0.9050 $ury=3.0150 $lvl=3
*|I (Mmp0@2:g Mmp0@2 g X 0 1.3350 3.0150) // $llx=1.3350 $lly=3.0150 $urx=1.3350 $ury=3.0150 $lvl=3
*|I (Mmp0@3:g Mmp0@3 g X 0 1.7650 3.0150) // $llx=1.7650 $lly=3.0150 $urx=1.7650 $ury=3.0150 $lvl=3
*|I (Mmp0@4:g Mmp0@4 g X 0 2.1950 3.0150) // $llx=2.1950 $lly=3.0150 $urx=2.1950 $ury=3.0150 $lvl=3
*|I (Mmp0@5:g Mmp0@5 g X 0 2.6250 3.0150) // $llx=2.6250 $lly=3.0150 $urx=2.6250 $ury=3.0150 $lvl=3
*|I (Mmp0@6:g Mmp0@6 g X 0 3.0550 3.0150) // $llx=3.0550 $lly=3.0150 $urx=3.0550 $ury=3.0150 $lvl=3
*|I (Mmp0@7:g Mmp0@7 g X 0 3.4850 3.0150) // $llx=3.4850 $lly=3.0150 $urx=3.4850 $ury=3.0150 $lvl=3
*|I (Mmp0@8:g Mmp0@8 g X 0 3.9150 3.0150) // $llx=3.9150 $lly=3.0150 $urx=3.9150 $ury=3.0150 $lvl=3
*|I (Mmp0@9:g Mmp0@9 g X 0 4.3450 3.0150) // $llx=4.3450 $lly=3.0150 $urx=4.3450 $ury=3.0150 $lvl=3
*|I (Mmp0@10:g Mmp0@10 g X 0 4.7750 3.0150) // $llx=4.7750 $lly=3.0150 $urx=4.7750 $ury=3.0150 $lvl=3
*|I (Mmp0@11:g Mmp0@11 g X 0 5.2050 3.0150) // $llx=5.2050 $lly=3.0150 $urx=5.2050 $ury=3.0150 $lvl=3
*|I (Mmp0@12:g Mmp0@12 g X 0 5.6350 3.0150) // $llx=5.6350 $lly=3.0150 $urx=5.6350 $ury=3.0150 $lvl=3
*|I (Mmp0@13:g Mmp0@13 g X 0 6.0650 3.0150) // $llx=6.0650 $lly=3.0150 $urx=6.0650 $ury=3.0150 $lvl=3
*|I (Mmp0@14:g Mmp0@14 g X 0 6.4950 3.0150) // $llx=6.4950 $lly=3.0150 $urx=6.4950 $ury=3.0150 $lvl=3
*|I (Mmp0@15:g Mmp0@15 g X 0 6.9250 3.0150) // $llx=6.9250 $lly=3.0150 $urx=6.9250 $ury=3.0150 $lvl=3
*|I (Mmn0:g Mmn0 g X 0 0.4750 0.9700) // $llx=0.4750 $lly=0.9700 $urx=0.4750 $ury=0.9700 $lvl=3
*|I (Mmn0@1:g Mmn0@1 g X 0 0.9050 0.9700) // $llx=0.9050 $lly=0.9700 $urx=0.9050 $ury=0.9700 $lvl=3
*|I (Mmn0@2:g Mmn0@2 g X 0 1.3350 0.9700) // $llx=1.3350 $lly=0.9700 $urx=1.3350 $ury=0.9700 $lvl=3
*|I (Mmn0@3:g Mmn0@3 g X 0 1.7650 0.9700) // $llx=1.7650 $lly=0.9700 $urx=1.7650 $ury=0.9700 $lvl=3
*|I (Mmn0@4:g Mmn0@4 g X 0 2.1950 0.9700) // $llx=2.1950 $lly=0.9700 $urx=2.1950 $ury=0.9700 $lvl=3
*|I (Mmn0@5:g Mmn0@5 g X 0 2.6250 0.9700) // $llx=2.6250 $lly=0.9700 $urx=2.6250 $ury=0.9700 $lvl=3
*|I (Mmn0@6:g Mmn0@6 g X 0 3.0550 0.9700) // $llx=3.0550 $lly=0.9700 $urx=3.0550 $ury=0.9700 $lvl=3
*|I (Mmn0@7:g Mmn0@7 g X 0 3.4850 0.9700) // $llx=3.4850 $lly=0.9700 $urx=3.4850 $ury=0.9700 $lvl=3
*|I (Mmn0@8:g Mmn0@8 g X 0 3.9150 0.9700) // $llx=3.9150 $lly=0.9700 $urx=3.9150 $ury=0.9700 $lvl=3
*|I (Mmn0@9:g Mmn0@9 g X 0 4.3450 0.9700) // $llx=4.3450 $lly=0.9700 $urx=4.3450 $ury=0.9700 $lvl=3
*|I (Mmn0@10:g Mmn0@10 g X 0 4.7750 0.9700) // $llx=4.7750 $lly=0.9700 $urx=4.7750 $ury=0.9700 $lvl=3
*|I (Mmn0@11:g Mmn0@11 g X 0 5.2050 0.9700) // $llx=5.2050 $lly=0.9700 $urx=5.2050 $ury=0.9700 $lvl=3
*|I (Mmn0@12:g Mmn0@12 g X 0 5.6350 0.9700) // $llx=5.6350 $lly=0.9700 $urx=5.6350 $ury=0.9700 $lvl=3
*|I (Mmn0@13:g Mmn0@13 g X 0 6.0650 0.9700) // $llx=6.0650 $lly=0.9700 $urx=6.0650 $ury=0.9700 $lvl=3
*|I (Mmn0@14:g Mmn0@14 g X 0 6.4950 0.9700) // $llx=6.4950 $lly=0.9700 $urx=6.4950 $ury=0.9700 $lvl=3
*|I (Mmn0@15:g Mmn0@15 g X 0 6.9250 0.9700) // $llx=6.9250 $lly=0.9700 $urx=6.9250 $ury=0.9700 $lvl=3
*|S (A:113 6.9250 3.8950) // $llx=6.9250 $lly=3.8950 $urx=6.9250 $ury=3.8950 $lvl=3
*|S (A:114 6.9250 1.6450) // $llx=6.9250 $lly=1.6450 $urx=6.9250 $ury=1.6450 $lvl=3
*|S (A:115 6.4950 1.6450) // $llx=6.4950 $lly=1.6450 $urx=6.4950 $ury=1.6450 $lvl=3
*|S (A:116 6.0650 1.6450) // $llx=6.0650 $lly=1.6450 $urx=6.0650 $ury=1.6450 $lvl=3
*|S (A:117 5.6350 1.6450) // $llx=5.6350 $lly=1.6450 $urx=5.6350 $ury=1.6450 $lvl=3
*|S (A:118 5.2050 1.6450) // $llx=5.2050 $lly=1.6450 $urx=5.2050 $ury=1.6450 $lvl=3
*|S (A:119 4.7750 1.6450) // $llx=4.7750 $lly=1.6450 $urx=4.7750 $ury=1.6450 $lvl=3
*|S (A:120 4.3450 1.6450) // $llx=4.3450 $lly=1.6450 $urx=4.3450 $ury=1.6450 $lvl=3
*|S (A:121 3.9150 1.6450) // $llx=3.9150 $lly=1.6450 $urx=3.9150 $ury=1.6450 $lvl=3
*|S (A:122 3.7000 1.6450) // $llx=3.7000 $lly=1.6450 $urx=3.7000 $ury=1.6450 $lvl=3
*|S (A:123 3.4850 1.6450) // $llx=3.4850 $lly=1.6450 $urx=3.4850 $ury=1.6450 $lvl=3
*|S (A:124 3.0550 1.6450) // $llx=3.0550 $lly=1.6450 $urx=3.0550 $ury=1.6450 $lvl=3
*|S (A:125 2.6250 1.6450) // $llx=2.6250 $lly=1.6450 $urx=2.6250 $ury=1.6450 $lvl=3
*|S (A:126 2.1950 1.6450) // $llx=2.1950 $lly=1.6450 $urx=2.1950 $ury=1.6450 $lvl=3
*|S (A:127 1.7650 1.6450) // $llx=1.7650 $lly=1.6450 $urx=1.7650 $ury=1.6450 $lvl=3
*|S (A:128 1.3350 1.6450) // $llx=1.3350 $lly=1.6450 $urx=1.3350 $ury=1.6450 $lvl=3
*|S (A:129 0.9050 1.6450) // $llx=0.9050 $lly=1.6450 $urx=0.9050 $ury=1.6450 $lvl=3
*|S (A:130 0.4750 1.6450) // $llx=0.4750 $lly=1.6450 $urx=0.4750 $ury=1.6450 $lvl=3
*|S (A:131 0.3400 1.6450) // $llx=0.3400 $lly=1.6450 $urx=0.3400 $ury=1.6450 $lvl=3
*|S (A:132 6.9250 0.4400) // $llx=6.9250 $lly=0.4400 $urx=6.9250 $ury=0.4400 $lvl=3
*|S (A:133 7.0595 1.6450) // $llx=7.0595 $lly=1.6450 $urx=7.0595 $ury=1.6450 $lvl=3
*|S (A:134 6.4950 0.4400) // $llx=6.4950 $lly=0.4400 $urx=6.4950 $ury=0.4400 $lvl=3
*|S (A:135 6.4950 3.8950) // $llx=6.4950 $lly=3.8950 $urx=6.4950 $ury=3.8950 $lvl=3
*|S (A:136 6.0650 0.4400) // $llx=6.0650 $lly=0.4400 $urx=6.0650 $ury=0.4400 $lvl=3
*|S (A:137 6.0650 3.8950) // $llx=6.0650 $lly=3.8950 $urx=6.0650 $ury=3.8950 $lvl=3
*|S (A:138 5.6350 0.4400) // $llx=5.6350 $lly=0.4400 $urx=5.6350 $ury=0.4400 $lvl=3
*|S (A:139 5.6350 3.8950) // $llx=5.6350 $lly=3.8950 $urx=5.6350 $ury=3.8950 $lvl=3
*|S (A:140 5.2050 0.4400) // $llx=5.2050 $lly=0.4400 $urx=5.2050 $ury=0.4400 $lvl=3
*|S (A:141 5.2050 3.8950) // $llx=5.2050 $lly=3.8950 $urx=5.2050 $ury=3.8950 $lvl=3
*|S (A:142 4.7750 0.4400) // $llx=4.7750 $lly=0.4400 $urx=4.7750 $ury=0.4400 $lvl=3
*|S (A:143 4.7750 3.8950) // $llx=4.7750 $lly=3.8950 $urx=4.7750 $ury=3.8950 $lvl=3
*|S (A:144 4.3450 0.4400) // $llx=4.3450 $lly=0.4400 $urx=4.3450 $ury=0.4400 $lvl=3
*|S (A:145 4.3450 3.8950) // $llx=4.3450 $lly=3.8950 $urx=4.3450 $ury=3.8950 $lvl=3
*|S (A:146 3.9150 0.4400) // $llx=3.9150 $lly=0.4400 $urx=3.9150 $ury=0.4400 $lvl=3
*|S (A:147 3.9150 3.8950) // $llx=3.9150 $lly=3.8950 $urx=3.9150 $ury=3.8950 $lvl=3
*|S (A:148 3.4850 0.4400) // $llx=3.4850 $lly=0.4400 $urx=3.4850 $ury=0.4400 $lvl=3
*|S (A:149 3.4850 3.8950) // $llx=3.4850 $lly=3.8950 $urx=3.4850 $ury=3.8950 $lvl=3
*|S (A:150 3.0550 0.4400) // $llx=3.0550 $lly=0.4400 $urx=3.0550 $ury=0.4400 $lvl=3
*|S (A:151 3.0550 3.8950) // $llx=3.0550 $lly=3.8950 $urx=3.0550 $ury=3.8950 $lvl=3
*|S (A:152 2.6250 0.4400) // $llx=2.6250 $lly=0.4400 $urx=2.6250 $ury=0.4400 $lvl=3
*|S (A:153 2.6250 3.8950) // $llx=2.6250 $lly=3.8950 $urx=2.6250 $ury=3.8950 $lvl=3
*|S (A:154 2.1950 0.4400) // $llx=2.1950 $lly=0.4400 $urx=2.1950 $ury=0.4400 $lvl=3
*|S (A:155 2.1950 3.8950) // $llx=2.1950 $lly=3.8950 $urx=2.1950 $ury=3.8950 $lvl=3
*|S (A:156 1.7650 0.4400) // $llx=1.7650 $lly=0.4400 $urx=1.7650 $ury=0.4400 $lvl=3
*|S (A:157 1.7650 3.8950) // $llx=1.7650 $lly=3.8950 $urx=1.7650 $ury=3.8950 $lvl=3
*|S (A:158 1.3350 0.4400) // $llx=1.3350 $lly=0.4400 $urx=1.3350 $ury=0.4400 $lvl=3
*|S (A:159 1.3350 3.8950) // $llx=1.3350 $lly=3.8950 $urx=1.3350 $ury=3.8950 $lvl=3
*|S (A:160 0.9050 0.4400) // $llx=0.9050 $lly=0.4400 $urx=0.9050 $ury=0.4400 $lvl=3
*|S (A:161 0.9050 3.8950) // $llx=0.9050 $lly=3.8950 $urx=0.9050 $ury=3.8950 $lvl=3
*|S (A:162 0.4750 0.4400) // $llx=0.4750 $lly=0.4400 $urx=0.4750 $ury=0.4400 $lvl=3
*|S (A:163 0.4750 3.8950) // $llx=0.4750 $lly=3.8950 $urx=0.4750 $ury=3.8950 $lvl=3
*|S (A:164 0.4600 1.6450) // $llx=0.4600 $lly=1.6450 $urx=0.4600 $ury=1.6450 $lvl=2
*|S (A:165 3.7000 1.6450) // $llx=3.7000 $lly=1.6450 $urx=3.7000 $ury=1.6450 $lvl=2
*|S (A:166 0.4600 2.7050) // $llx=0.4600 $lly=2.7050 $urx=0.4600 $ury=2.7050 $lvl=1
*|S (A:167 0.4600 1.6450) // $llx=0.4600 $lly=1.6450 $urx=0.4600 $ury=1.6450 $lvl=1
*|S (A:168 0.4600 1.4650) // $llx=0.4600 $lly=1.4650 $urx=0.4600 $ury=1.4650 $lvl=1
CA1 Mmn0@15:g VSS! 2.14882e-18 $lvl=3
CA2 Mmn0@13:g VSS! 1.91774e-18 $lvl=3
CA3 Mmn0@11:g VSS! 1.5144e-18 $lvl=3
CA4 Mmn0@9:g VSS! 1.60107e-18 $lvl=3
CA5 Mmn0@7:g VSS! 1.62776e-18 $lvl=3
CA6 Mmn0@5:g VSS! 1.8996e-18 $lvl=3
CA7 Mmn0@3:g VSS! 1.64656e-18 $lvl=3
CA8 Mmn0@1:g VSS! 2.10625e-18 $lvl=3
CA9 A:166 VSS! 1.09535e-17 $lvl=1
CA10 A:168 VSS! 1.11612e-17 $lvl=1
CA11 A:113 VSS! 1.48408e-18 $lvl=3
CA12 A:135 VSS! 2.43871e-18 $lvl=3
CA13 A:137 VSS! 4.38043e-18 $lvl=3
CA14 A:139 VSS! 3.24748e-18 $lvl=3
CA15 A:141 VSS! 3.3331e-18 $lvl=3
CA16 A:143 VSS! 3.24722e-18 $lvl=3
CA17 A:145 VSS! 3.15454e-18 $lvl=3
CA18 A:147 VSS! 2.67089e-18 $lvl=3
CA19 A:149 VSS! 2.61999e-18 $lvl=3
CA20 A:151 VSS! 2.99525e-18 $lvl=3
CA21 A:153 VSS! 2.51828e-18 $lvl=3
CA22 A:155 VSS! 2.98731e-18 $lvl=3
CA23 A:157 VSS! 1.87885e-18 $lvl=3
CA24 A:159 VSS! 3.12828e-18 $lvl=3
CA25 A:161 VSS! 1.86126e-18 $lvl=3
CA26 A:163 VSS! 1.87197e-18 $lvl=3
CA27 A:162 VSS! 2.48919e-18 $lvl=3
CA28 A:158 VSS! 2.69811e-18 $lvl=3
CA29 A:154 VSS! 2.33981e-18 $lvl=3
CA30 A:150 VSS! 1.78327e-18 $lvl=3
CA31 A:146 VSS! 2.63985e-18 $lvl=3
CA32 A:142 VSS! 1.73476e-18 $lvl=3
CA33 A:138 VSS! 1.46939e-18 $lvl=3
CA34 A:134 VSS! 1.32942e-18 $lvl=3
CA35 A:165 VSS! 1.82106e-17 $lvl=2
CA36 A:164 VSS! 4.04607e-18 $lvl=2
CA37 A:122 VSS! 1.5345e-16 $lvl=3
CA38 A:165 VSS!:42 9.82388e-18 $lvl1=2 $lvl2=2
CA39 A:122 VSS!:42 8.56431e-18 $lvl1=3 $lvl2=2
CA40 A:146 VSS!:23 6.4119e-18 $lvl1=3 $lvl2=2
CA41 A:154 VSS!:24 6.26202e-18 $lvl1=3 $lvl2=2
CA42 A:164 VSS!:42 5.72708e-18 $lvl1=2 $lvl2=2
CA43 Mmn0@7:g VSS!:23 4.7254e-18 $lvl1=3 $lvl2=2
CA44 Mmn0@15:g VSS!:5 4.63246e-18 $lvl1=3 $lvl2=2
CA45 A:134 VSS!:6 4.41619e-18 $lvl1=3 $lvl2=2
CA46 Mmn0@13:g VSS!:6 4.40318e-18 $lvl1=3 $lvl2=2
CA47 A:162 VSS!:26 4.36398e-18 $lvl1=3 $lvl2=2
CA48 A:150 VSS!:23 4.25727e-18 $lvl1=3 $lvl2=2
CA49 Mmn0@5:g VSS!:23 3.92409e-18 $lvl1=3 $lvl2=2
CA50 Mmn0@9:g VSS!:8 3.38885e-18 $lvl1=3 $lvl2=2
CA51 A:138 VSS!:7 3.29936e-18 $lvl1=3 $lvl2=2
CA52 A:158 VSS!:25 3.1913e-18 $lvl1=3 $lvl2=2
CA53 A:168 VSS!:45 3.19004e-18 $lvl1=1 $lvl2=1
CA54 A:165 VSS!:45 3.10975e-18 $lvl1=2 $lvl2=1
CA55 Mmn0@5:g VSS!:24 2.82515e-18 $lvl1=3 $lvl2=2
CA56 A:122 Mmn0@5:s 2.81678e-18 $lvl1=3 $lvl2=4
CA57 A:122 Mmn0@1:s 2.80264e-18 $lvl1=3 $lvl2=4
CA58 Mmn0@1:g VSS!:25 2.75946e-18 $lvl1=3 $lvl2=2
CA59 A:122 Mmn0@3:s 2.56417e-18 $lvl1=3 $lvl2=4
CA60 Mmn0@3:g VSS!:24 2.55952e-18 $lvl1=3 $lvl2=2
CA61 A:166 VSS!:42 2.55285e-18 $lvl1=1 $lvl2=2
CA62 Mmn0@11:g VSS!:8 2.37189e-18 $lvl1=3 $lvl2=2
CA63 A:142 VSS!:8 2.2739e-18 $lvl1=3 $lvl2=2
CA64 A:122 Mmn0@9:s 2.15532e-18 $lvl1=3 $lvl2=4
CA65 A:168 VSS!:39 2.09453e-18 $lvl1=1 $lvl2=2
CA66 A:122 Mmn0@7:s 2.07612e-18 $lvl1=3 $lvl2=4
CA67 A:122 Mmn0@15:s 2.06651e-18 $lvl1=3 $lvl2=4
CA68 Mmn0@3:g VSS!:25 2.02035e-18 $lvl1=3 $lvl2=2
CA69 Mmn0@9:g VSS!:23 1.96393e-18 $lvl1=3 $lvl2=2
CA70 A:122 Mmn0@11:s 1.91242e-18 $lvl1=3 $lvl2=4
CA71 A:168 VSS!:46 1.88949e-18 $lvl1=1 $lvl2=1
CA72 A:166 VSS!:45 1.85871e-18 $lvl1=1 $lvl2=1
CA73 A:122 Mmn0:s 1.73981e-18 $lvl1=3 $lvl2=4
CA74 Mmn0@13:g VSS!:7 1.56011e-18 $lvl1=3 $lvl2=2
CA75 Mmn0@15:g VSS!:6 1.49453e-18 $lvl1=3 $lvl2=2
CA76 A:122 Mmn0@13:s 1.4862e-18 $lvl1=3 $lvl2=4
CA77 A:166 VSS!:46 1.40123e-18 $lvl1=1 $lvl2=1
CA78 Mmn0@3:g VSS!:39 1.33132e-18 $lvl1=3 $lvl2=2
CA79 A:134 VSS!:5 1.27508e-18 $lvl1=3 $lvl2=2
CA80 A:158 VSS!:24 1.20553e-18 $lvl1=3 $lvl2=2
CA81 Mmn0@11:g VSS!:7 1.19506e-18 $lvl1=3 $lvl2=2
CA82 A:138 VSS!:16 1.13954e-18 $lvl1=3 $lvl2=2
CA83 Mmn0@7:g VSS!:33 1.12463e-18 $lvl1=3 $lvl2=2
CA84 A:134 VSS!:13 1.10664e-18 $lvl1=3 $lvl2=2
CA85 A:154 VSS!:23 1.05884e-18 $lvl1=3 $lvl2=2
CA86 A:142 VSS!:7 1.00446e-18 $lvl1=3 $lvl2=2
CA87 Mmn0@13:g VSS!:19 1.00265e-18 $lvl1=3 $lvl2=2
CA88 A:146 VSS!:22 8.56991e-19 $lvl1=3 $lvl2=2
CA89 Mmn0@9:g VSS!:30 8.02763e-19 $lvl1=3 $lvl2=2
CA90 A:138 VSS!:6 7.38639e-19 $lvl1=3 $lvl2=2
CA91 A:138 VSS!:8 7.22267e-19 $lvl1=3 $lvl2=2
CA92 Mmn0@1:g VSS!:26 7.21856e-19 $lvl1=3 $lvl2=2
CA93 A:166 VSS!:39 7.09085e-19 $lvl1=1 $lvl2=2
CA94 A:154 VSS!:33 7.08091e-19 $lvl1=3 $lvl2=2
CA95 A:113 VSS!:13 6.97861e-19 $lvl1=3 $lvl2=2
CA96 A:165 VSS!:43 6.94836e-19 $lvl1=2 $lvl2=1
CA97 A:122 VSS!:45 6.93171e-19 $lvl1=3 $lvl2=1
CA98 A:165 VSS!:16 2.0013e-17 $lvl1=2 $lvl2=2
CA99 A:122 VSS!:33 1.34721e-17 $lvl1=3 $lvl2=2
CA100 A:165 VSS!:35 1.94941e-17 $lvl1=2 $lvl2=2
CA101 A:134 VSS!:16 1.31944e-16 $lvl1=3 $lvl2=2
CA102 A:165 VSS!:13 1.38853e-17 $lvl1=2 $lvl2=2
CA103 A:138 VSS!:19 1.3241e-16 $lvl1=3 $lvl2=2
CA104 A:122 VSS!:19 1.35059e-17 $lvl1=3 $lvl2=2
CA105 A:142 VSS!:22 1.24649e-16 $lvl1=3 $lvl2=2
CA106 A:122 VSS!:39 1.60353e-17 $lvl1=3 $lvl2=2
CA107 Mmn0@13:g VSS!:16 1.275e-16 $lvl1=3 $lvl2=2
CA108 A:146 VSS!:30 1.22755e-16 $lvl1=3 $lvl2=2
CA109 Mmn0@7:g VSS!:30 1.28614e-16 $lvl1=3 $lvl2=2
CA110 A:150 VSS!:33 1.27198e-16 $lvl1=3 $lvl2=2
CA111 A:122 VSS!:30 1.59092e-17 $lvl1=3 $lvl2=2
CA112 A:165 VSS!:39 2.06072e-17 $lvl1=2 $lvl2=2
CA113 Mmn0@5:g VSS!:33 1.32927e-16 $lvl1=3 $lvl2=2
CA114 A:122 VSS!:16 1.3773e-17 $lvl1=3 $lvl2=2
CA115 A:158 VSS!:39 1.3905e-16 $lvl1=3 $lvl2=2
CA116 A:165 VSS!:33 1.96203e-17 $lvl1=2 $lvl2=2
CA117 Mmn0@11:g VSS!:19 1.29434e-16 $lvl1=3 $lvl2=2
CA118 A:162 VSS!:42 1.23973e-16 $lvl1=3 $lvl2=2
CA119 A:165 VSS!:30 1.63274e-17 $lvl1=2 $lvl2=2
CA120 A:122 VSS!:22 1.56058e-17 $lvl1=3 $lvl2=2
CA121 A:168 VSS!:42 1.03993e-17 $lvl1=1 $lvl2=2
CA122 Mmn0@3:g VSS!:35 1.28063e-16 $lvl1=3 $lvl2=2
CA123 Mmn0@15:g VSS!:13 1.21921e-16 $lvl1=3 $lvl2=2
CA124 A:165 VSS!:22 1.93704e-17 $lvl1=2 $lvl2=2
CA125 A:122 VSS!:35 1.64078e-17 $lvl1=3 $lvl2=2
CA126 A:154 VSS!:35 1.31657e-16 $lvl1=3 $lvl2=2
CA127 A:165 VSS!:19 2.13033e-17 $lvl1=2 $lvl2=2
CA128 Mmn0@1:g VSS!:39 1.29206e-16 $lvl1=3 $lvl2=2
CA129 A:122 VSS!:13 1.32582e-17 $lvl1=3 $lvl2=2
CA130 Mmn0@9:g VSS!:22 1.26119e-16 $lvl1=3 $lvl2=2
CA131 A:165 VDD!:16 9.31086e-18 $lvl1=2 $lvl2=2
CA132 A:165 VDD!:32 8.94979e-18 $lvl1=2 $lvl2=2
CA133 A:161 VDD!:34 8.7927e-18 $lvl1=3 $lvl2=2
CA134 A:155 VDD!:30 8.495e-18 $lvl1=3 $lvl2=2
CA135 A:137 VDD!:6 8.44565e-18 $lvl1=3 $lvl2=2
CA136 A:157 VDD!:30 8.20529e-18 $lvl1=3 $lvl2=2
CA137 A:165 VDD!:19 8.01452e-18 $lvl1=2 $lvl2=2
CA138 A:166 VDD!:37 7.93597e-18 $lvl1=1 $lvl2=2
CA139 A:165 VDD!:28 7.91061e-18 $lvl1=2 $lvl2=2
CA140 A:159 VDD!:34 7.71437e-18 $lvl1=3 $lvl2=2
CA141 A:122 VDD!:16 7.70725e-18 $lvl1=3 $lvl2=2
CA142 A:149 VDD!:26 7.6457e-18 $lvl1=3 $lvl2=2
CA143 A:135 VDD!:6 7.57962e-18 $lvl1=3 $lvl2=2
CA144 A:153 VDD!:26 7.52833e-18 $lvl1=3 $lvl2=2
CA145 A:122 VDD!:32 7.3925e-18 $lvl1=3 $lvl2=2
CA146 A:165 VDD!:37 7.19917e-18 $lvl1=2 $lvl2=2
CA147 A:165 VDD!:13 7.12934e-18 $lvl1=2 $lvl2=2
CA148 A:147 VDD!:26 6.95508e-18 $lvl1=3 $lvl2=2
CA149 A:122 VDD!:37 6.72607e-18 $lvl1=3 $lvl2=2
CA150 A:143 VDD!:8 6.6894e-18 $lvl1=3 $lvl2=2
CA151 A:165 VDD!:22 6.59573e-18 $lvl1=2 $lvl2=2
CA152 A:122 VDD!:13 6.52002e-18 $lvl1=3 $lvl2=2
CA153 A:122 VDD!:25 6.49883e-18 $lvl1=3 $lvl2=2
CA154 A:113 VDD!:5 6.26593e-18 $lvl1=3 $lvl2=2
CA155 A:165 VDD!:25 6.08581e-18 $lvl1=2 $lvl2=2
CA156 A:122 VDD!:19 5.85817e-18 $lvl1=3 $lvl2=2
CA157 A:122 VDD!:28 5.83354e-18 $lvl1=3 $lvl2=2
CA158 A:139 VDD!:7 5.77749e-18 $lvl1=3 $lvl2=2
CA159 A:163 VDD!:38 5.27313e-18 $lvl1=3 $lvl2=2
CA160 A:151 VDD!:26 5.1232e-18 $lvl1=3 $lvl2=2
CA161 A:122 VDD!:22 5.09016e-18 $lvl1=3 $lvl2=2
CA162 A:141 VDD!:8 4.77302e-18 $lvl1=3 $lvl2=2
CA163 A:145 VDD!:8 4.62585e-18 $lvl1=3 $lvl2=2
CA164 A:166 VDD!:45 4.41978e-18 $lvl1=1 $lvl2=1
CA165 A:122 VDD!:41 4.24148e-18 $lvl1=3 $lvl2=2
CA166 A:168 VDD!:41 4.12001e-18 $lvl1=1 $lvl2=2
CA167 A:141 VDD!:7 4.05232e-18 $lvl1=3 $lvl2=2
CA168 A:165 VDD!:41 3.99301e-18 $lvl1=2 $lvl2=2
CA169 A:145 VDD!:26 3.9145e-18 $lvl1=3 $lvl2=2
CA170 A:153 VDD!:30 2.96932e-18 $lvl1=3 $lvl2=2
CA171 A:165 VDD!:45 2.62685e-18 $lvl1=2 $lvl2=1
CA172 A:139 VDD!:6 2.5977e-18 $lvl1=3 $lvl2=2
CA173 A:166 VDD!:46 2.20028e-18 $lvl1=1 $lvl2=1
CA174 A:157 VDD!:34 2.18024e-18 $lvl1=3 $lvl2=2
CA175 A:163 VDD!:34 2.15831e-18 $lvl1=3 $lvl2=2
CA176 A:161 VDD!:38 1.7915e-18 $lvl1=3 $lvl2=2
CA177 A:164 VDD!:41 1.79116e-18 $lvl1=2 $lvl2=2
CA178 A:159 VDD!:30 1.74423e-18 $lvl1=3 $lvl2=2
CA179 A:113 VDD!:16 1.70733e-18 $lvl1=3 $lvl2=2
CA180 A:135 VDD!:5 1.66343e-18 $lvl1=3 $lvl2=2
CA181 A:163 VDD!:37 1.46487e-18 $lvl1=3 $lvl2=2
CA182 A:164 VDD! 1.45266e-18 $lvl1=2 $lvl2=1
CA183 A:147 VDD!:8 1.33814e-18 $lvl1=3 $lvl2=2
CA184 A:113 VDD!:6 1.32362e-18 $lvl1=3 $lvl2=2
CA185 A:168 VDD!:37 1.31734e-18 $lvl1=1 $lvl2=2
CA186 A:147 VDD!:22 1.27904e-18 $lvl1=3 $lvl2=2
CA187 A:122 Mmp0@7:s 1.27275e-18 $lvl1=3 $lvl2=4
CA188 A:155 VDD!:32 2.50121e-16 $lvl1=3 $lvl2=2
CA189 A:139 VDD!:19 2.49843e-16 $lvl1=3 $lvl2=2
CA190 A:161 VDD!:37 2.49748e-16 $lvl1=3 $lvl2=2
CA191 A:157 VDD!:32 2.53598e-16 $lvl1=3 $lvl2=2
CA192 A:141 VDD!:19 2.53644e-16 $lvl1=3 $lvl2=2
CA193 A:151 VDD!:28 2.46838e-16 $lvl1=3 $lvl2=2
CA194 A:153 VDD!:28 2.44742e-16 $lvl1=3 $lvl2=2
CA195 A:135 VDD!:16 2.5291e-16 $lvl1=3 $lvl2=2
CA196 A:166 VDD!:41 2.77905e-17 $lvl1=1 $lvl2=2
CA197 A:137 VDD!:16 2.57591e-16 $lvl1=3 $lvl2=2
CA198 A:166 VDD! 2.49738e-17 $lvl1=1 $lvl2=1
CA199 A:168 VDD! 1.93452e-17 $lvl1=1 $lvl2=1
CA200 A:147 VDD!:25 2.50106e-16 $lvl1=3 $lvl2=2
CA201 A:113 VDD!:13 2.55341e-16 $lvl1=3 $lvl2=2
CA202 A:149 VDD!:25 2.52918e-16 $lvl1=3 $lvl2=2
CA203 A:165 VDD! 1.99419e-17 $lvl1=2 $lvl2=1
CA204 A:163 VDD!:41 2.56838e-16 $lvl1=3 $lvl2=2
CA205 A:122 VDD! 3.47468e-17 $lvl1=3 $lvl2=1
CA206 A:143 VDD!:22 2.40219e-16 $lvl1=3 $lvl2=2
CA207 A:145 VDD!:22 2.5845e-16 $lvl1=3 $lvl2=2
CA208 A:159 VDD!:37 2.57058e-16 $lvl1=3 $lvl2=2
CA209 A:122 Y:77 7.52553e-18 $lvl1=3 $lvl2=1
CA210 A:166 Y:5 7.20326e-18 $lvl1=1 $lvl2=2
CA211 A:165 Y:86 6.80733e-18 $lvl1=2 $lvl2=1
CA212 A:165 Y:89 6.78467e-18 $lvl1=2 $lvl2=1
CA213 A:165 Y:85 6.55315e-18 $lvl1=2 $lvl2=1
CA214 A:165 Y:88 6.43162e-18 $lvl1=2 $lvl2=1
CA215 A:165 Y:90 6.33946e-18 $lvl1=2 $lvl2=1
CA216 A:165 Y:84 5.41789e-18 $lvl1=2 $lvl2=1
CA217 A:166 Y:82 5.2012e-18 $lvl1=1 $lvl2=1
CA218 A:165 Y:69 5.17655e-18 $lvl1=2 $lvl2=2
CA219 A:165 Y:23 5.16344e-18 $lvl1=2 $lvl2=2
CA220 A:165 Y:60 4.86171e-18 $lvl1=2 $lvl2=2
CA221 A:165 Y:32 4.77106e-18 $lvl1=2 $lvl2=2
CA222 A:168 Y:6 4.68104e-18 $lvl1=1 $lvl2=2
CA223 A:165 Y:51 4.65495e-18 $lvl1=2 $lvl2=2
CA224 A:165 Y:14 4.18348e-18 $lvl1=2 $lvl2=2
CA225 A:165 Y:45 4.10176e-18 $lvl1=2 $lvl2=2
CA226 A:164 Y:6 3.99119e-18 $lvl1=2 $lvl2=2
CA227 A:165 Y:41 3.62866e-18 $lvl1=2 $lvl2=2
CA228 A:165 Y:5 3.58561e-18 $lvl1=2 $lvl2=2
CA229 A:122 Y:69 3.45908e-18 $lvl1=3 $lvl2=2
CA230 A:165 Y:56 3.45234e-18 $lvl1=2 $lvl2=2
CA231 A:122 Y:14 3.40125e-18 $lvl1=3 $lvl2=2
CA232 A:165 Y:19 3.36669e-18 $lvl1=2 $lvl2=2
CA233 A:168 Y:86 3.33762e-18 $lvl1=1 $lvl2=1
CA234 A:122 Y:1 3.31828e-18 $lvl1=3 $lvl2=2
CA235 A:165 Y:28 3.26631e-18 $lvl1=2 $lvl2=2
CA236 A:122 Y:32 3.24878e-18 $lvl1=3 $lvl2=2
CA237 A:122 Y:60 3.21145e-18 $lvl1=3 $lvl2=2
CA238 A:122 Y:51 3.15553e-18 $lvl1=3 $lvl2=2
CA239 A:122 Y:23 3.06127e-18 $lvl1=3 $lvl2=2
CA240 A:122 Mmn0@8:d 3.0458e-18 $lvl1=3 $lvl2=4
CA241 A:165 Y:10 3.01277e-18 $lvl1=2 $lvl2=2
CA242 A:122 Y:41 2.96036e-18 $lvl1=3 $lvl2=2
CA243 A:122 Y:47 2.84727e-18 $lvl1=3 $lvl2=2
CA244 A:165 Y:87 2.80739e-18 $lvl1=2 $lvl2=1
CA245 A:122 Mmn0@10:d 2.74697e-18 $lvl1=3 $lvl2=4
CA246 A:122 Y:19 2.56884e-18 $lvl1=3 $lvl2=2
CA247 A:122 Y:28 2.54649e-18 $lvl1=3 $lvl2=2
CA248 A:165 Y:75 2.54201e-18 $lvl1=2 $lvl2=1
CA249 A:122 Y:10 2.51206e-18 $lvl1=3 $lvl2=2
CA250 A:122 Y:65 2.45016e-18 $lvl1=3 $lvl2=2
CA251 A:122 Y:5 2.44609e-18 $lvl1=3 $lvl2=2
CA252 A:122 Y:37 2.43845e-18 $lvl1=3 $lvl2=2
CA253 A:165 Y:82 2.43325e-18 $lvl1=2 $lvl2=1
CA254 A:166 Y:87 2.35287e-18 $lvl1=1 $lvl2=1
CA255 A:122 Mmn0@14:d 2.34708e-18 $lvl1=3 $lvl2=4
CA256 A:122 Y:56 2.34068e-18 $lvl1=3 $lvl2=2
CA257 A:165 Y:47 2.2833e-18 $lvl1=2 $lvl2=2
CA258 A:122 Mmn0@6:d 2.25728e-18 $lvl1=3 $lvl2=4
CA259 A:166 Y:86 2.25624e-18 $lvl1=1 $lvl2=1
CA260 A:122 Mmn0:d 2.14772e-18 $lvl1=3 $lvl2=4
CA261 A:122 Mmn0@2:d 2.09151e-18 $lvl1=3 $lvl2=4
CA262 A:165 Y:81 1.9803e-18 $lvl1=2 $lvl2=1
CA263 A:165 Y:65 1.94177e-18 $lvl1=2 $lvl2=2
CA264 A:165 Y:74 1.89097e-18 $lvl1=2 $lvl2=1
CA265 A:122 Mmn0@4:d 1.87563e-18 $lvl1=3 $lvl2=4
CA266 A:122 Mmn0@12:d 1.86884e-18 $lvl1=3 $lvl2=4
CA267 A:165 Y:1 1.76982e-18 $lvl1=2 $lvl2=2
CA268 A:165 Y:80 1.74313e-18 $lvl1=2 $lvl2=1
CA269 A:166 Y:10 1.54962e-18 $lvl1=1 $lvl2=2
CA270 A:165 Y:37 1.50475e-18 $lvl1=2 $lvl2=2
CA271 A:166 Y:81 1.37088e-18 $lvl1=1 $lvl2=1
CA272 A:166 Y:77 1.3422e-18 $lvl1=1 $lvl2=1
CA273 A:135 Y:69 1.29897e-18 $lvl1=3 $lvl2=2
CA274 A:161 Y:5 1.27767e-18 $lvl1=3 $lvl2=2
CA275 A:141 Y:51 1.23968e-18 $lvl1=3 $lvl2=2
CA276 A:113 Y:69 1.22588e-18 $lvl1=3 $lvl2=2
CA277 A:165 Y:76 1.18412e-18 $lvl1=2 $lvl2=1
CA278 A:159 Y:14 1.17901e-18 $lvl1=3 $lvl2=2
CA279 A:145 Y:47 1.17365e-18 $lvl1=3 $lvl2=2
CA280 A:149 Y:32 1.13268e-18 $lvl1=3 $lvl2=2
CA281 A:157 Y:14 1.11577e-18 $lvl1=3 $lvl2=2
CA282 A:143 Y:51 1.07635e-18 $lvl1=3 $lvl2=2
CA283 A:122 Y:89 1.06438e-18 $lvl1=3 $lvl2=1
CA284 A:122 Y:88 1.06391e-18 $lvl1=3 $lvl2=1
CA285 A:168 Y:85 1.05663e-18 $lvl1=1 $lvl2=1
CA286 A:122 Mmp0@14:d 1.05037e-18 $lvl1=3 $lvl2=4
CA287 Mmn0@9:g Y:52 1.00144e-18 $lvl1=3 $lvl2=2
CA288 A:153 Y:23 9.87949e-19 $lvl1=3 $lvl2=2
CA289 A:168 Y:5 9.48475e-19 $lvl1=1 $lvl2=2
CA290 A:165 Y:83 9.37864e-19 $lvl1=2 $lvl2=1
CA291 A:168 Y:83 8.65146e-19 $lvl1=1 $lvl2=1
CA292 A:151 Y:32 8.15364e-19 $lvl1=3 $lvl2=2
CA293 A:166 Y:14 8.05612e-19 $lvl1=1 $lvl2=2
CA294 A:155 Y:23 8.05205e-19 $lvl1=3 $lvl2=2
CA295 A:163 Y:5 7.69874e-19 $lvl1=3 $lvl2=2
CA296 A:166 Y:85 7.63543e-19 $lvl1=1 $lvl2=1
CA297 A:122 Y:90 7.62063e-19 $lvl1=3 $lvl2=1
CA298 A:122 Y:85 7.42636e-19 $lvl1=3 $lvl2=1
CA299 A:122 Y:87 7.25805e-19 $lvl1=3 $lvl2=1
CA300 A:168 Y:82 7.18055e-19 $lvl1=1 $lvl2=1
CA301 A:122 Mmp0@4:d 7.14369e-19 $lvl1=3 $lvl2=4
CA302 A:139 Y:60 7.13596e-19 $lvl1=3 $lvl2=2
CA303 A:161 Y:10 7.12539e-19 $lvl1=3 $lvl2=2
CA304 A:122 Y:42 1.38224e-17 $lvl1=3 $lvl2=2
CA305 A:138 Y:61 1.2672e-16 $lvl1=3 $lvl2=2
CA306 A:122 Y:15 1.63865e-17 $lvl1=3 $lvl2=2
CA307 A:165 Y:42 1.78309e-17 $lvl1=2 $lvl2=2
CA308 A:151 Y:28 2.59416e-16 $lvl1=3 $lvl2=2
CA309 Mmn0@11:g Y:52 1.23803e-16 $lvl1=3 $lvl2=2
CA310 Mmn0@15:g Y:70 1.28096e-16 $lvl1=3 $lvl2=2
CA311 Mmn0@9:g Y:42 1.24129e-16 $lvl1=3 $lvl2=2
CA312 Mmn0@5:g Y:24 1.32356e-16 $lvl1=3 $lvl2=2
CA313 A:154 Y:24 1.26756e-16 $lvl1=3 $lvl2=2
CA314 A:155 Y:19 2.47972e-16 $lvl1=3 $lvl2=2
CA315 A:149 Y:28 2.54713e-16 $lvl1=3 $lvl2=2
CA316 A:143 Y:47 2.50445e-16 $lvl1=3 $lvl2=2
CA317 A:166 Y:83 1.6238e-17 $lvl1=1 $lvl2=1
CA318 A:122 Y:52 1.46786e-17 $lvl1=3 $lvl2=2
CA319 A:122 Y:24 1.50751e-17 $lvl1=3 $lvl2=2
CA320 A:165 Y:24 2.11573e-17 $lvl1=2 $lvl2=2
CA321 A:159 Y:10 2.46272e-16 $lvl1=3 $lvl2=2
CA322 A:163 Y:1 2.46761e-16 $lvl1=3 $lvl2=2
CA323 Mmn0@1:g Y:6 1.26327e-16 $lvl1=3 $lvl2=2
CA324 A:141 Y:47 2.54621e-16 $lvl1=3 $lvl2=2
CA325 A:165 Y:70 2.00814e-17 $lvl1=2 $lvl2=2
CA326 Mmn0@3:g Y:15 1.31362e-16 $lvl1=3 $lvl2=2
CA327 A:153 Y:19 2.54768e-16 $lvl1=3 $lvl2=2
CA328 A:142 Y:52 1.22539e-16 $lvl1=3 $lvl2=2
CA329 A:165 Y:6 1.52059e-17 $lvl1=2 $lvl2=2
CA330 A:135 Y:65 2.55952e-16 $lvl1=3 $lvl2=2
CA331 A:157 Y:10 2.52688e-16 $lvl1=3 $lvl2=2
CA332 A:165 Y:52 1.91402e-17 $lvl1=2 $lvl2=2
CA333 A:161 Y:1 2.51845e-16 $lvl1=3 $lvl2=2
CA334 A:122 Y:61 1.6441e-17 $lvl1=3 $lvl2=2
CA335 A:122 Y:33 1.23159e-17 $lvl1=3 $lvl2=2
CA336 A:113 Y:65 2.52749e-16 $lvl1=3 $lvl2=2
CA337 A:162 Y:6 1.24932e-16 $lvl1=3 $lvl2=2
CA338 A:150 Y:33 1.30302e-16 $lvl1=3 $lvl2=2
CA339 Mmn0@7:g Y:33 1.21457e-16 $lvl1=3 $lvl2=2
CA340 A:168 Y:87 1.20139e-17 $lvl1=1 $lvl2=1
CA341 A:134 Y:70 1.31587e-16 $lvl1=3 $lvl2=2
CA342 A:165 Y:33 1.74371e-17 $lvl1=2 $lvl2=2
CA343 Mmn0@13:g Y:61 1.22559e-16 $lvl1=3 $lvl2=2
CA344 A:122 Y:70 1.54809e-17 $lvl1=3 $lvl2=2
CA345 A:122 Y:6 1.44003e-17 $lvl1=3 $lvl2=2
CA346 A:165 Y:77 5.5364e-17 $lvl1=2 $lvl2=1
CA347 A:158 Y:15 1.22571e-16 $lvl1=3 $lvl2=2
CA348 A:147 Y:37 2.55138e-16 $lvl1=3 $lvl2=2
CA349 A:146 Y:42 1.282e-16 $lvl1=3 $lvl2=2
CA350 A:165 Y:15 2.06652e-17 $lvl1=2 $lvl2=2
CA351 A:139 Y:56 2.4667e-16 $lvl1=3 $lvl2=2
CA352 A:166 Y:1 1.37572e-17 $lvl1=1 $lvl2=2
CA353 A:165 Y:61 2.04685e-17 $lvl1=2 $lvl2=2
CA354 A:145 Y:37 2.52333e-16 $lvl1=3 $lvl2=2
CA355 A:137 Y:56 2.54381e-16 $lvl1=3 $lvl2=2
ReA1 A:166 A 0.310096 $metal1  $L=0.645 $W=0.260000 $SI_W=0.26 $TYPE=10 $DIR=1 $LLX=0.330000 $LLY=2.060000 $URX=0.590000 $URY=2.705000 $lvl=1
ReA2 A A:167 0.199519 $metal1  $L=0.415 $W=0.260000 $SI_W=0.26 $TYPE=10 $DIR=1 $LLX=0.330000 $LLY=1.645000 $URX=0.590000 $URY=2.060000 $lvl=1
ReA3 A:167 A:168 0.086538 $metal1  $L=0.18 $W=0.260000 $SI_W=0.26 $TYPE=10 $DIR=1 $LLX=0.330000 $LLY=1.465000 $URX=0.590000 $URY=1.645000 $lvl=1
RfA4 A:164 A:165 243.952927 $li  $L=3.24 $W=0.170000 $SI_W=0.17 $TYPE=10 $DIR=0 $LLX=0.460000 $LLY=1.560000 $URX=3.700000 $URY=1.730000 $lvl=2
RgA5 A:113 Mmp0@15:g 282.773346 $poly  $L=0.88 $W=0.150000 $SI_W=0.15 $TYPE=10 $DIR=1 $LLX=6.850000 $LLY=3.015000 $URX=7.000000 $URY=3.895000 $lvl=3
RgA6 Mmp0@15:g A:114 411.270172 $poly  $L=1.36975 $W=0.150000 $SI_W=0.15 $TYPE=10 $DIR=1 $LLX=6.850000 $LLY=1.645000 $URX=7.000000 $URY=3.015000 $lvl=3
RgA7 A:114 A:115 62.806061 $poly  $L=0.43 $W=0.330000 $SI_W=0.33 $TYPE=10 $DIR=0 $LLX=6.495000 $LLY=1.480000 $URX=6.925000 $URY=1.810000 $lvl=3
RgA8 A:115 A:116 62.806061 $poly  $L=0.43 $W=0.330000 $SI_W=0.33 $TYPE=10 $DIR=0 $LLX=6.065000 $LLY=1.480000 $URX=6.495000 $URY=1.810000 $lvl=3
RgA9 A:116 A:117 62.806061 $poly  $L=0.43 $W=0.330000 $SI_W=0.33 $TYPE=10 $DIR=0 $LLX=5.635000 $LLY=1.480000 $URX=6.065000 $URY=1.810000 $lvl=3
RgA10 A:117 A:118 62.806061 $poly  $L=0.43 $W=0.330000 $SI_W=0.33 $TYPE=10 $DIR=0 $LLX=5.205000 $LLY=1.480000 $URX=5.635000 $URY=1.810000 $lvl=3
RgA11 A:118 A:119 62.806061 $poly  $L=0.43 $W=0.330000 $SI_W=0.33 $TYPE=10 $DIR=0 $LLX=4.775000 $LLY=1.480000 $URX=5.205000 $URY=1.810000 $lvl=3
RgA12 A:119 A:120 62.806061 $poly  $L=0.43 $W=0.330000 $SI_W=0.33 $TYPE=10 $DIR=0 $LLX=4.345000 $LLY=1.480000 $URX=4.775000 $URY=1.810000 $lvl=3
RgA13 A:120 A:121 62.806061 $poly  $L=0.43 $W=0.330000 $SI_W=0.33 $TYPE=10 $DIR=0 $LLX=3.915000 $LLY=1.480000 $URX=4.345000 $URY=1.810000 $lvl=3
RgA14 A:121 A:122 31.439547 $poly  $L=0.21525 $W=0.330000 $SI_W=0.33 $TYPE=10 $DIR=0 $LLX=3.700000 $LLY=1.480000 $URX=3.915000 $URY=1.810000 $lvl=3
RgA15 A:122 A:123 31.366514 $poly  $L=0.21475 $W=0.330000 $SI_W=0.33 $TYPE=10 $DIR=0 $LLX=3.485000 $LLY=1.480000 $URX=3.700000 $URY=1.810000 $lvl=3
RgA16 A:123 A:124 62.806061 $poly  $L=0.43 $W=0.330000 $SI_W=0.33 $TYPE=10 $DIR=0 $LLX=3.055000 $LLY=1.480000 $URX=3.485000 $URY=1.810000 $lvl=3
RgA17 A:124 A:125 62.806061 $poly  $L=0.43 $W=0.330000 $SI_W=0.33 $TYPE=10 $DIR=0 $LLX=2.625000 $LLY=1.480000 $URX=3.055000 $URY=1.810000 $lvl=3
RgA18 A:125 A:126 62.806061 $poly  $L=0.43 $W=0.330000 $SI_W=0.33 $TYPE=10 $DIR=0 $LLX=2.195000 $LLY=1.480000 $URX=2.625000 $URY=1.810000 $lvl=3
RgA19 A:126 A:127 62.806061 $poly  $L=0.43 $W=0.330000 $SI_W=0.33 $TYPE=10 $DIR=0 $LLX=1.765000 $LLY=1.480000 $URX=2.195000 $URY=1.810000 $lvl=3
RgA20 A:127 A:128 62.806061 $poly  $L=0.43 $W=0.330000 $SI_W=0.33 $TYPE=10 $DIR=0 $LLX=1.335000 $LLY=1.480000 $URX=1.765000 $URY=1.810000 $lvl=3
RgA21 A:128 A:129 62.806061 $poly  $L=0.43 $W=0.330000 $SI_W=0.33 $TYPE=10 $DIR=0 $LLX=0.905000 $LLY=1.480000 $URX=1.335000 $URY=1.810000 $lvl=3
RgA22 A:129 A:130 62.806061 $poly  $L=0.43 $W=0.330000 $SI_W=0.33 $TYPE=10 $DIR=0 $LLX=0.475000 $LLY=1.480000 $URX=0.905000 $URY=1.810000 $lvl=3
RgA23 A:130 A:131 19.754698 $poly  $L=0.13525 $W=0.330000 $SI_W=0.33 $TYPE=10 $DIR=0 $LLX=0.340000 $LLY=1.480000 $URX=0.475000 $URY=1.810000 $lvl=3
RgA24 A:114 Mmn0@15:g 188.016510 $poly  $L=0.67525 $W=0.150000 $SI_W=0.15 $TYPE=10 $DIR=1 $LLX=6.850000 $LLY=0.970000 $URX=7.000000 $URY=1.645000 $lvl=3
RgA25 Mmn0@15:g A:132 170.306671 $poly  $L=0.53 $W=0.150000 $SI_W=0.15 $TYPE=10 $DIR=1 $LLX=6.850000 $LLY=0.440000 $URX=7.000000 $URY=0.970000 $lvl=3
RgA26 A:114 A:133 19.608637 $poly  $L=0.13425 $W=0.330000 $SI_W=0.33 $TYPE=10 $DIR=0 $LLX=6.925000 $LLY=1.480000 $URX=7.059000 $URY=1.810000 $lvl=3
RgA27 A:115 Mmn0@14:g 188.016510 $poly  $L=0.67525 $W=0.150000 $SI_W=0.15 $TYPE=10 $DIR=1 $LLX=6.420000 $LLY=0.970000 $URX=6.570000 $URY=1.645000 $lvl=3