*
*|DSPF 1.5
*
*|DATE "Wed Jan  8 21:24:25 2025"
*|VENDOR "Cadence Design Systems"
*|PROGRAM "Cadence Quantus Extraction"
*|VERSION "22.1.0-p089 Linux 64 bit - (Thu Jan 19 11:47:08 PST 2023)"
*|DESIGN INVX8_HS
*|DIVIDER /
*|DELIMITER :
*|DeviceFingerDelim "@"
*|BUSBIT []
*|GLOBAL_TEMPERATURE 25
*|OPERATING_TEMPERATURE 25

** *VIA_COVERAGE_CODES
** *index FF FS FP FU SF SS SP SU PF PS PP PU UF US UP UU X_by_Y
** * "FF" stands for Full landing and Full coverage
** *0 0 0 0 0 0 0 0 0 0 0 0 0 0 0 0 0
** *1 0 0 0 0 0 0 0 0 0 0 0 0 0 0 0 1 1x1
** *2 0 0 0 0 0 0 0 0 0 0 0 0 0 0 1 0 1x1
** *3 0 0 0 0 0 0 0 0 0 0 0 0 0 1 0 0 1x1
** *4 0 0 0 0 0 0 0 0 0 0 0 0 1 0 0 0 1x1
** *5 0 0 0 0 0 0 0 0 0 0 0 1 0 0 0 0 1x1
** *6 0 0 0 0 0 0 0 0 0 0 1 0 0 0 0 0 1x1
** *7 0 0 0 0 0 0 0 0 0 1 0 0 0 0 0 0 1x1
** *8 0 0 0 0 0 0 0 0 1 0 0 0 0 0 0 0 1x1
** *9 0 0 0 0 0 0 0 1 0 0 0 0 0 0 0 0 1x1
** *10 0 0 0 0 0 0 1 0 0 0 0 0 0 0 0 0 1x1
** *11 0 0 0 0 0 1 0 0 0 0 0 0 0 0 0 0 1x1
** *12 0 0 0 0 1 0 0 0 0 0 0 0 0 0 0 0 1x1
** *13 0 0 0 1 0 0 0 0 0 0 0 0 0 0 0 0 1x1
** *14 0 0 1 0 0 0 0 0 0 0 0 0 0 0 0 0 1x1
** *15 0 1 0 0 0 0 0 0 0 0 0 0 0 0 0 0 1x1
** *16 1 0 0 0 0 0 0 0 0 0 0 0 0 0 0 0 1x1

** *RESISTOR_TYPES
** *1 SHORTING_ELEMENT
** *2 PRES_NG
** *3 PRES_PG
** *4 PRES_NF
** *5 PRES_PF
** *6 TCN_NDIFF
** *7 TCN_PDIFF
** *8 TCN_NFIELD
** *9 TCN_PFIELD
** *10 QUALITY_EXTRACTED
** *11 GCNLAND
** *12 TCNLAND
** *13 DUMMY
** *14 RSD
** *15 BRIDGE

** *RESISTOR_CURRENT_DIRECTION
** *0 HORIZONTAL
** *1 VERTICAL
** *2 45 DEGREE

** QRC_TECH_DIR /vols/wfo_devel/projects/reference_SKY130/tech/sky130_release_0.0.4/quantus/extraction/typical 
** HIERARCHICAL_SPLIT_PINS_DELIMITER '%'
** caps2d version: 10
*
.SUBCKT  INVX8_HS A Y
*
*Net Section
*
*|GROUND_NET VSS!
*
*LAYER_MAP
*0 none
*1 metal1
*2 li
*3 poly
*4 diff
*5 licon_diff
*6 mcon
*7 licon
*8 FOX

*|NET VSS! 2.81588e-15
*|P (VSS! X 0 2.4150 0.0050) // $llx=2.4150 $lly=0.0050 $urx=2.4150 $ury=0.0050 $lvl=1
*|I (Mmn0:s Mmn0 s X 0 0.3995 0.9700) // $llx=0.3995 $lly=0.9700 $urx=0.3995 $ury=0.9700 $lvl=4
*|I (Mmn0:b Mmn0 b X 0 0.4750 0.9700) // $llx=0.4750 $lly=0.9700 $urx=0.4750 $ury=0.9700 $lvl=8
*|I (Mmn0@1:s Mmn0@1 s X 0 0.9805 0.9700) // $llx=0.9805 $lly=0.9700 $urx=0.9805 $ury=0.9700 $lvl=4
*|I (Mmn0@1:b Mmn0@1 b X 0 0.9050 0.9700) // $llx=0.9050 $lly=0.9700 $urx=0.9050 $ury=0.9700 $lvl=8
*|I (Mmn0@2:s Mmn0@2 s X 0 1.2595 0.9700) // $llx=1.2595 $lly=0.9700 $urx=1.2595 $ury=0.9700 $lvl=4
*|I (Mmn0@2:b Mmn0@2 b X 0 1.3350 0.9700) // $llx=1.3350 $lly=0.9700 $urx=1.3350 $ury=0.9700 $lvl=8
*|I (Mmn0@3:s Mmn0@3 s X 0 1.8405 0.9700) // $llx=1.8405 $lly=0.9700 $urx=1.8405 $ury=0.9700 $lvl=4
*|I (Mmn0@3:b Mmn0@3 b X 0 1.7650 0.9700) // $llx=1.7650 $lly=0.9700 $urx=1.7650 $ury=0.9700 $lvl=8
*|I (Mmn0@4:s Mmn0@4 s X 0 2.1195 0.9700) // $llx=2.1195 $lly=0.9700 $urx=2.1195 $ury=0.9700 $lvl=4
*|I (Mmn0@4:b Mmn0@4 b X 0 2.1950 0.9700) // $llx=2.1950 $lly=0.9700 $urx=2.1950 $ury=0.9700 $lvl=8
*|I (Mmn0@5:s Mmn0@5 s X 0 2.7005 0.9700) // $llx=2.7005 $lly=0.9700 $urx=2.7005 $ury=0.9700 $lvl=4
*|I (Mmn0@5:b Mmn0@5 b X 0 2.6250 0.9700) // $llx=2.6250 $lly=0.9700 $urx=2.6250 $ury=0.9700 $lvl=8
*|I (Mmn0@6:s Mmn0@6 s X 0 2.9795 0.9700) // $llx=2.9795 $lly=0.9700 $urx=2.9795 $ury=0.9700 $lvl=4
*|I (Mmn0@6:b Mmn0@6 b X 0 3.0550 0.9700) // $llx=3.0550 $lly=0.9700 $urx=3.0550 $ury=0.9700 $lvl=8
*|I (Mmn0@7:s Mmn0@7 s X 0 3.5605 0.9700) // $llx=3.5605 $lly=0.9700 $urx=3.5605 $ury=0.9700 $lvl=4
*|I (Mmn0@7:b Mmn0@7 b X 0 3.4850 0.9700) // $llx=3.4850 $lly=0.9700 $urx=3.4850 $ury=0.9700 $lvl=8
*|S (VSS!:1 3.7000 1.3500) // $llx=3.7000 $lly=1.3500 $urx=3.7000 $ury=1.3500 $lvl=2
*|S (VSS!:3 3.7000 0.9700) // $llx=3.7000 $lly=0.9700 $urx=3.7000 $ury=0.9700 $lvl=2
*|S (VSS!:4 3.7000 0.0000) // $llx=3.7000 $lly=0.0000 $urx=3.7000 $ury=0.0000 $lvl=2
*|S (VSS!:5 2.8400 0.0000) // $llx=2.8400 $lly=0.0000 $urx=2.8400 $ury=0.0000 $lvl=2
*|S (VSS!:6 2.0700 0.0000) // $llx=2.0700 $lly=0.0000 $urx=2.0700 $ury=0.0000 $lvl=2
*|S (VSS!:7 2.0700 0.0000) // $llx=2.0700 $lly=0.0000 $urx=2.0700 $ury=0.0000 $lvl=4
*|S (VSS!:9 4.1395 0.0000) // $llx=4.1395 $lly=0.0000 $urx=4.1395 $ury=0.0000 $lvl=2
*|S (VSS!:11 2.8400 0.9700) // $llx=2.8400 $lly=0.9700 $urx=2.8400 $ury=0.9700 $lvl=2
*|S (VSS!:12 2.8400 1.3500) // $llx=2.8400 $lly=1.3500 $urx=2.8400 $ury=1.3500 $lvl=2
*|S (VSS!:13 1.1200 0.0000) // $llx=1.1200 $lly=0.0000 $urx=1.1200 $ury=0.0000 $lvl=2
*|S (VSS!:14 0.2600 0.0000) // $llx=0.2600 $lly=0.0000 $urx=0.2600 $ury=0.0000 $lvl=2
*|S (VSS!:15 0.0000 0.0000) // $llx=0.0000 $lly=0.0000 $urx=0.0000 $ury=0.0000 $lvl=2
*|S (VSS!:17 1.9800 0.9700) // $llx=1.9800 $lly=0.9700 $urx=1.9800 $ury=0.9700 $lvl=2
*|S (VSS!:18 1.9800 1.3500) // $llx=1.9800 $lly=1.3500 $urx=1.9800 $ury=1.3500 $lvl=2
*|S (VSS!:20 1.1200 0.9700) // $llx=1.1200 $lly=0.9700 $urx=1.1200 $ury=0.9700 $lvl=2
*|S (VSS!:21 1.1200 1.3500) // $llx=1.1200 $lly=1.3500 $urx=1.1200 $ury=1.3500 $lvl=2
*|S (VSS!:23 0.2600 0.9700) // $llx=0.2600 $lly=0.9700 $urx=0.2600 $ury=0.9700 $lvl=2
*|S (VSS!:24 0.2600 1.3500) // $llx=0.2600 $lly=1.3500 $urx=0.2600 $ury=1.3500 $lvl=2
*|S (VSS!:25 4.1400 0.0000) // $llx=4.1400 $lly=0.0000 $urx=4.1400 $ury=0.0000 $lvl=1
*|S (VSS!:26 2.0700 0.0000) // $llx=2.0700 $lly=0.0000 $urx=2.0700 $ury=0.0000 $lvl=1
*|S (VSS!:27 0.0000 0.0000) // $llx=0.0000 $lly=0.0000 $urx=0.0000 $ury=0.0000 $lvl=1
ReD145 VSS!:25 VSS! 0.539062 $metal1  $L=1.725 $W=0.400000 $SI_W=0.4 $TYPE=10 $DIR=0 $LLX=2.415000 $LLY=-0.199500 $URX=4.140000 $URY=0.200000 $lvl=1
ReD146 VSS! VSS!:26 0.107813 $metal1  $L=0.345 $W=0.400000 $SI_W=0.4 $TYPE=10 $DIR=0 $LLX=2.070000 $LLY=-0.199500 $URX=2.415000 $URY=0.200000 $lvl=1
ReD147 VSS!:26 VSS!:27 0.646875 $metal1  $L=2.07 $W=0.400000 $SI_W=0.4 $TYPE=10 $DIR=0 $LLX=0.000000 $LLY=-0.199500 $URX=2.070000 $URY=0.200000 $lvl=1
RfD148 VSS!:1 VSS!:3 28.611765 $li  $L=0.38 $W=0.170000 $SI_W=0.17 $TYPE=10 $DIR=1 $LLX=3.615000 $LLY=0.970000 $URX=3.785000 $URY=1.350000 $lvl=2
RfD149 VSS!:3 VSS!:4 70.010727 $li  $L=0.96975 $W=0.170000 $SI_W=0.17 $TYPE=10 $DIR=1 $LLX=3.615000 $LLY=0.000000 $URX=3.785000 $URY=0.970000 $lvl=2
RfD150 VSS!:4 VSS!:5 44.031998 $li  $L=0.86 $W=0.250000 $SI_W=0.25 $TYPE=10 $DIR=0 $LLX=2.840000 $LLY=-0.124500 $URX=3.700000 $URY=0.125000 $lvl=2
RfD151 VSS!:5 VSS!:6 39.436802 $li  $L=0.77025 $W=0.250000 $SI_W=0.25 $TYPE=10 $DIR=0 $LLX=2.070000 $LLY=-0.124500 $URX=2.840000 $URY=0.125000 $lvl=2
RfD152 VSS!:4 VSS!:9 22.489599 $li  $L=0.43925 $W=0.250000 $SI_W=0.25 $TYPE=10 $DIR=0 $LLX=3.700000 $LLY=-0.124500 $URX=4.139000 $URY=0.125000 $lvl=2
RfD153 VSS!:5 VSS!:11 70.010727 $li  $L=0.96975 $W=0.170000 $SI_W=0.17 $TYPE=10 $DIR=1 $LLX=2.755000 $LLY=0.000000 $URX=2.925000 $URY=0.970000 $lvl=2
RfD154 VSS!:11 VSS!:12 28.611765 $li  $L=0.38 $W=0.170000 $SI_W=0.17 $TYPE=10 $DIR=1 $LLX=2.755000 $LLY=0.970000 $URX=2.925000 $URY=1.350000 $lvl=2
RfD155 VSS!:6 VSS!:13 48.627201 $li  $L=0.94975 $W=0.250000 $SI_W=0.25 $TYPE=10 $DIR=0 $LLX=1.120000 $LLY=-0.124500 $URX=2.070000 $URY=0.125000 $lvl=2
RfD156 VSS!:13 VSS!:14 44.031998 $li  $L=0.86 $W=0.250000 $SI_W=0.25 $TYPE=10 $DIR=0 $LLX=0.260000 $LLY=-0.124500 $URX=1.120000 $URY=0.125000 $lvl=2
RfD157 VSS!:14 VSS!:15 13.324800 $li  $L=0.26025 $W=0.250000 $SI_W=0.25 $TYPE=10 $DIR=0 $LLX=0.000000 $LLY=-0.124500 $URX=0.260000 $URY=0.125000 $lvl=2
RfD158 VSS!:6 VSS!:17 70.023529 $li  $L=0.97 $W=0.170000 $SI_W=0.17 $TYPE=10 $DIR=1 $LLX=1.895000 $LLY=0.000000 $URX=2.065000 $URY=0.970000 $lvl=2
RfD159 VSS!:17 VSS!:18 28.611765 $li  $L=0.38 $W=0.170000 $SI_W=0.17 $TYPE=10 $DIR=1 $LLX=1.895000 $LLY=0.970000 $URX=2.065000 $URY=1.350000 $lvl=2
RfD160 VSS!:13 VSS!:20 70.010727 $li  $L=0.96975 $W=0.170000 $SI_W=0.17 $TYPE=10 $DIR=1 $LLX=1.035000 $LLY=0.000000 $URX=1.205000 $URY=0.970000 $lvl=2
RfD161 VSS!:20 VSS!:21 28.611765 $li  $L=0.38 $W=0.170000 $SI_W=0.17 $TYPE=10 $DIR=1 $LLX=1.035000 $LLY=0.970000 $URX=1.205000 $URY=1.350000 $lvl=2
RfD162 VSS!:14 VSS!:23 70.010727 $li  $L=0.96975 $W=0.170000 $SI_W=0.17 $TYPE=10 $DIR=1 $LLX=0.175000 $LLY=0.000000 $URX=0.345000 $URY=0.970000 $lvl=2
RfD163 VSS!:23 VSS!:24 28.611765 $li  $L=0.38 $W=0.170000 $SI_W=0.17 $TYPE=10 $DIR=1 $LLX=0.175000 $LLY=0.970000 $URX=0.345000 $URY=1.350000 $lvl=2
RhD164 Mmn0@7:s VSS!:3 7.500000 $licon_diff  $A=0.0578 $VC=0 $SAVL=0 $SAVC=0 $SI_A=0.0578 $COVER_DIR=0 $LLX=0.000000 $LLY=0.000000 $URX=-0.057800 $URY=-2.000000 $lvl=5
RhD165 Mmn0@5:s VSS!:11 7.500000 $licon_diff  $A=0.0578 $VC=0 $SAVL=0 $SAVC=0 $SI_A=0.0578 $COVER_DIR=0 $LLX=0.000000 $LLY=0.000000 $URX=-0.057800 $URY=-2.000000 $lvl=5
RhD166 Mmn0@3:s VSS!:17 7.500000 $licon_diff  $A=0.0578 $VC=0 $SAVL=0 $SAVC=0 $SI_A=0.0578 $COVER_DIR=0 $LLX=0.000000 $LLY=0.000000 $URX=-0.057800 $URY=-2.000000 $lvl=5
RhD167 Mmn0@1:s VSS!:20 7.500000 $licon_diff  $A=0.0578 $VC=0 $SAVL=0 $SAVC=0 $SI_A=0.0578 $COVER_DIR=0 $LLX=0.000000 $LLY=0.000000 $URX=-0.057800 $URY=-2.000000 $lvl=5
RhD168 Mmn0:s VSS!:23 7.500000 $licon_diff  $A=0.0578 $VC=0 $SAVL=0 $SAVC=0 $SI_A=0.0578 $COVER_DIR=0 $LLX=0.000000 $LLY=0.000000 $URX=-0.057800 $URY=-2.000000 $lvl=5
Rh_3_D169 VSS!:7 VSS!:6 1.875000 $licon_diff  $A=0.2312 $VC=0 $SAVL=0 $SAVC=0 $SI_A=0.2312 $COVER_DIR=0 $LLX=0.000000 $LLY=0.000000 $URX=-0.231200 $URY=-8.000000 $lvl=5
RjD170 VSS!:6 VSS!:26 19.000000 $mcon  $A=0.2312 $VC=0 $SAVL=0 $SAVC=0 $SI_A=0.2312 $COVER_DIR=0 $LLX=0.000000 $LLY=0.000000 $URX=-0.231200 $URY=-8.000000 $lvl=6
RmwD171 Mmn0:b VSS! 0.001000 $FOX $W=1000000 $SI_W=1000000 $TYPE=1 $DIR=0
RmwD172 Mmn0@1:b VSS! 0.001000 $FOX $W=1000000 $SI_W=1000000 $TYPE=1 $DIR=0
RmwD173 Mmn0@2:s Mmn0@1:s 0.001000 $diff $W=1000000 $SI_W=1000000 $TYPE=1 $DIR=0
RmwD174 Mmn0@2:b VSS! 0.001000 $FOX $W=1000000 $SI_W=1000000 $TYPE=1 $DIR=0
RmwD175 Mmn0@3:b VSS! 0.001000 $FOX $W=1000000 $SI_W=1000000 $TYPE=1 $DIR=0
RmwD176 Mmn0@4:s Mmn0@3:s 0.001000 $diff $W=1000000 $SI_W=1000000 $TYPE=1 $DIR=0
RmwD177 Mmn0@4:b VSS! 0.001000 $FOX $W=1000000 $SI_W=1000000 $TYPE=1 $DIR=0
RmwD178 Mmn0@5:b VSS! 0.001000 $FOX $W=1000000 $SI_W=1000000 $TYPE=1 $DIR=0
RmwD179 Mmn0@6:s Mmn0@5:s 0.001000 $diff $W=1000000 $SI_W=1000000 $TYPE=1 $DIR=0
RmwD180 Mmn0@6:b VSS! 0.001000 $FOX $W=1000000 $SI_W=1000000 $TYPE=1 $DIR=0
RmwD181 Mmn0@7:b VSS! 0.001000 $FOX $W=1000000 $SI_W=1000000 $TYPE=1 $DIR=0
*
*|NET A 6.97368e-15
*|P (A X 0 0.9350 1.9100) // $llx=0.9350 $lly=1.9100 $urx=0.9350 $ury=1.9100 $lvl=1
*|I (Mmp0:g Mmp0 g X 0 0.4750 3.0150) // $llx=0.4750 $lly=3.0150 $urx=0.4750 $ury=3.0150 $lvl=3
*|I (Mmp0@1:g Mmp0@1 g X 0 0.9050 3.0150) // $llx=0.9050 $lly=3.0150 $urx=0.9050 $ury=3.0150 $lvl=3
*|I (Mmp0@2:g Mmp0@2 g X 0 1.3350 3.0150) // $llx=1.3350 $lly=3.0150 $urx=1.3350 $ury=3.0150 $lvl=3
*|I (Mmp0@3:g Mmp0@3 g X 0 1.7650 3.0150) // $llx=1.7650 $lly=3.0150 $urx=1.7650 $ury=3.0150 $lvl=3
*|I (Mmp0@4:g Mmp0@4 g X 0 2.1950 3.0150) // $llx=2.1950 $lly=3.0150 $urx=2.1950 $ury=3.0150 $lvl=3
*|I (Mmp0@5:g Mmp0@5 g X 0 2.6250 3.0150) // $llx=2.6250 $lly=3.0150 $urx=2.6250 $ury=3.0150 $lvl=3
*|I (Mmp0@6:g Mmp0@6 g X 0 3.0550 3.0150) // $llx=3.0550 $lly=3.0150 $urx=3.0550 $ury=3.0150 $lvl=3
*|I (Mmp0@7:g Mmp0@7 g X 0 3.4850 3.0150) // $llx=3.4850 $lly=3.0150 $urx=3.4850 $ury=3.0150 $lvl=3
*|I (Mmn0:g Mmn0 g X 0 0.4750 0.9700) // $llx=0.4750 $lly=0.9700 $urx=0.4750 $ury=0.9700 $lvl=3
*|I (Mmn0@1:g Mmn0@1 g X 0 0.9050 0.9700) // $llx=0.9050 $lly=0.9700 $urx=0.9050 $ury=0.9700 $lvl=3
*|I (Mmn0@2:g Mmn0@2 g X 0 1.3350 0.9700) // $llx=1.3350 $lly=0.9700 $urx=1.3350 $ury=0.9700 $lvl=3
*|I (Mmn0@3:g Mmn0@3 g X 0 1.7650 0.9700) // $llx=1.7650 $lly=0.9700 $urx=1.7650 $ury=0.9700 $lvl=3
*|I (Mmn0@4:g Mmn0@4 g X 0 2.1950 0.9700) // $llx=2.1950 $lly=0.9700 $urx=2.1950 $ury=0.9700 $lvl=3
*|I (Mmn0@5:g Mmn0@5 g X 0 2.6250 0.9700) // $llx=2.6250 $lly=0.9700 $urx=2.6250 $ury=0.9700 $lvl=3
*|I (Mmn0@6:g Mmn0@6 g X 0 3.0550 0.9700) // $llx=3.0550 $lly=0.9700 $urx=3.0550 $ury=0.9700 $lvl=3
*|I (Mmn0@7:g Mmn0@7 g X 0 3.4850 0.9700) // $llx=3.4850 $lly=0.9700 $urx=3.4850 $ury=0.9700 $lvl=3
*|S (A:57 3.4850 3.8950) // $llx=3.4850 $lly=3.8950 $urx=3.4850 $ury=3.8950 $lvl=3
*|S (A:58 3.4850 1.7750) // $llx=3.4850 $lly=1.7750 $urx=3.4850 $ury=1.7750 $lvl=3
*|S (A:59 3.0550 1.7750) // $llx=3.0550 $lly=1.7750 $urx=3.0550 $ury=1.7750 $lvl=3
*|S (A:60 2.6250 1.7750) // $llx=2.6250 $lly=1.7750 $urx=2.6250 $ury=1.7750 $lvl=3
*|S (A:61 2.1950 1.7750) // $llx=2.1950 $lly=1.7750 $urx=2.1950 $ury=1.7750 $lvl=3
*|S (A:62 1.9800 1.7750) // $llx=1.9800 $lly=1.7750 $urx=1.9800 $ury=1.7750 $lvl=3
*|S (A:63 1.7650 1.7750) // $llx=1.7650 $lly=1.7750 $urx=1.7650 $ury=1.7750 $lvl=3
*|S (A:64 1.3350 1.7750) // $llx=1.3350 $lly=1.7750 $urx=1.3350 $ury=1.7750 $lvl=3
*|S (A:65 0.9050 1.7750) // $llx=0.9050 $lly=1.7750 $urx=0.9050 $ury=1.7750 $lvl=3
*|S (A:66 0.4750 1.7750) // $llx=0.4750 $lly=1.7750 $urx=0.4750 $ury=1.7750 $lvl=3
*|S (A:67 0.3100 1.7750) // $llx=0.3100 $lly=1.7750 $urx=0.3100 $ury=1.7750 $lvl=3
*|S (A:68 3.4850 0.4400) // $llx=3.4850 $lly=0.4400 $urx=3.4850 $ury=0.4400 $lvl=3
*|S (A:69 3.6495 1.7750) // $llx=3.6495 $lly=1.7750 $urx=3.6495 $ury=1.7750 $lvl=3
*|S (A:70 3.0550 0.4400) // $llx=3.0550 $lly=0.4400 $urx=3.0550 $ury=0.4400 $lvl=3
*|S (A:71 3.0550 3.8950) // $llx=3.0550 $lly=3.8950 $urx=3.0550 $ury=3.8950 $lvl=3
*|S (A:72 2.6250 0.4400) // $llx=2.6250 $lly=0.4400 $urx=2.6250 $ury=0.4400 $lvl=3
*|S (A:73 2.6250 3.8950) // $llx=2.6250 $lly=3.8950 $urx=2.6250 $ury=3.8950 $lvl=3
*|S (A:74 2.1950 0.4400) // $llx=2.1950 $lly=0.4400 $urx=2.1950 $ury=0.4400 $lvl=3
*|S (A:75 2.1950 3.8950) // $llx=2.1950 $lly=3.8950 $urx=2.1950 $ury=3.8950 $lvl=3
*|S (A:76 1.7650 0.4400) // $llx=1.7650 $lly=0.4400 $urx=1.7650 $ury=0.4400 $lvl=3
*|S (A:77 1.7650 3.8950) // $llx=1.7650 $lly=3.8950 $urx=1.7650 $ury=3.8950 $lvl=3
*|S (A:78 1.3350 0.4400) // $llx=1.3350 $lly=0.4400 $urx=1.3350 $ury=0.4400 $lvl=3
*|S (A:79 1.3350 3.8950) // $llx=1.3350 $lly=3.8950 $urx=1.3350 $ury=3.8950 $lvl=3
*|S (A:80 0.9050 0.4400) // $llx=0.9050 $lly=0.4400 $urx=0.9050 $ury=0.4400 $lvl=3
*|S (A:81 0.9050 3.8950) // $llx=0.9050 $lly=3.8950 $urx=0.9050 $ury=3.8950 $lvl=3
*|S (A:82 0.4750 0.4400) // $llx=0.4750 $lly=0.4400 $urx=0.4750 $ury=0.4400 $lvl=3
*|S (A:83 0.4750 3.8950) // $llx=0.4750 $lly=3.8950 $urx=0.4750 $ury=3.8950 $lvl=3
*|S (A:84 3.6700 1.7750) // $llx=3.6700 $lly=1.7750 $urx=3.6700 $ury=1.7750 $lvl=2
*|S (A:85 1.9800 1.7750) // $llx=1.9800 $lly=1.7750 $urx=1.9800 $ury=1.7750 $lvl=2
*|S (A:86 0.9200 1.7750) // $llx=0.9200 $lly=1.7750 $urx=0.9200 $ury=1.7750 $lvl=2
*|S (A:87 0.2900 1.7750) // $llx=0.2900 $lly=1.7750 $urx=0.2900 $ury=1.7750 $lvl=2
*|S (A:88 0.9200 2.5550) // $llx=0.9200 $lly=2.5550 $urx=0.9200 $ury=2.5550 $lvl=1
*|S (A:89 0.9200 1.7750) // $llx=0.9200 $lly=1.7750 $urx=0.9200 $ury=1.7750 $lvl=1
*|S (A:90 0.9200 1.3150) // $llx=0.9200 $lly=1.3150 $urx=0.9200 $ury=1.3150 $lvl=1
CA1 Mmn0@6:g VSS! 1.57495e-18 $lvl=3
CA2 Mmn0@2:g VSS! 9.66044e-19 $lvl=3
CA3 Mmn0@1:g VSS! 2.42055e-18 $lvl=3
CA4 Mmp0@1:g VSS! 2.72472e-18 $lvl=3
CA5 A:90 VSS! 7.46789e-18 $lvl=1
CA6 A:57 VSS! 2.38776e-18 $lvl=3
CA7 A:71 VSS! 2.77187e-18 $lvl=3
CA8 A:73 VSS! 2.19282e-18 $lvl=3
CA9 A:75 VSS! 1.78341e-18 $lvl=3
CA10 A:77 VSS! 1.8002e-18 $lvl=3
CA11 A:79 VSS! 3.54966e-18 $lvl=3
CA12 A:83 VSS! 2.36128e-18 $lvl=3
CA13 A:82 VSS! 1.48884e-18 $lvl=3
CA14 A:76 VSS! 2.09307e-18 $lvl=3
CA15 A:74 VSS! 1.58135e-18 $lvl=3
CA16 A:72 VSS! 1.1846e-18 $lvl=3
CA17 A:68 VSS! 2.12267e-18 $lvl=3
CA18 A:85 VSS! 8.44531e-18 $lvl=2
CA19 A:87 VSS! 4.76501e-18 $lvl=2
CA20 A:86 VSS! 3.67761e-18 $lvl=2
CA21 A:62 VSS! 7.78161e-17 $lvl=3
CA22 A VSS! 7.49857e-18 $lvl=1
CA23 A:85 VSS!:21 9.50145e-18 $lvl1=2 $lvl2=2
CA24 A:62 VSS!:11 9.47319e-18 $lvl1=3 $lvl2=2
CA25 A:62 VSS!:24 8.90109e-18 $lvl1=3 $lvl2=2
CA26 A:62 VSS!:1 8.68213e-18 $lvl1=3 $lvl2=2
CA27 A:90 VSS!:21 7.95642e-18 $lvl1=1 $lvl2=2
CA28 A:72 VSS!:6 5.69529e-18 $lvl1=3 $lvl2=2
CA29 A:87 VSS!:24 5.31183e-18 $lvl1=2 $lvl2=2
CA30 A:82 VSS!:14 5.2479e-18 $lvl1=3 $lvl2=2
CA31 A:85 VSS!:1 5.14334e-18 $lvl1=2 $lvl2=2
CA32 A:74 VSS!:6 4.88282e-18 $lvl1=3 $lvl2=2
CA33 A:85 VSS!:24 4.58662e-18 $lvl1=2 $lvl2=2
CA34 A:90 VSS!:24 3.67112e-18 $lvl1=1 $lvl2=2
CA35 Mmn0@2:g VSS!:13 3.43712e-18 $lvl1=3 $lvl2=2
CA36 Mmn0@1:g VSS!:13 3.21988e-18 $lvl1=3 $lvl2=2
CA37 A VSS!:26 3.18013e-18 $lvl1=1 $lvl2=1
CA38 Mmn0@6:g VSS!:6 3.13865e-18 $lvl1=3 $lvl2=2
CA39 A:76 VSS!:6 3.04806e-18 $lvl1=3 $lvl2=2
CA40 A:68 VSS!:4 2.74482e-18 $lvl1=3 $lvl2=2
CA41 A VSS!:24 2.7265e-18 $lvl1=1 $lvl2=2
CA42 A:68 VSS!:6 2.66136e-18 $lvl1=3 $lvl2=2
CA43 A:86 VSS!:21 2.54294e-18 $lvl1=2 $lvl2=2
CA44 A:90 VSS!:26 2.52869e-18 $lvl1=1 $lvl2=1
CA45 A:62 Mmn0@1:s 1.77798e-18 $lvl1=3 $lvl2=4
CA46 A:62 Mmn0@3:s 1.64598e-18 $lvl1=3 $lvl2=4
CA47 A:85 VSS!:26 1.63008e-18 $lvl1=2 $lvl2=1
CA48 A:76 VSS!:13 1.5885e-18 $lvl1=3 $lvl2=2
CA49 Mmn0@2:g VSS!:6 1.54488e-18 $lvl1=3 $lvl2=2
CA50 A:62 Mmn0:s 1.32718e-18 $lvl1=3 $lvl2=4
CA51 A:62 Mmn0@7:s 1.29484e-18 $lvl1=3 $lvl2=4
CA52 A VSS!:21 1.19043e-18 $lvl1=1 $lvl2=2
CA53 A:76 VSS!:21 1.17653e-18 $lvl1=3 $lvl2=2
CA54 A:82 VSS!:21 1.17205e-18 $lvl1=3 $lvl2=2
CA55 Mmn0@1:g VSS!:24 1.10484e-18 $lvl1=3 $lvl2=2
CA56 A VSS!:27 1.05987e-18 $lvl1=1 $lvl2=1
CA57 Mmn0@6:g VSS!:1 1.01619e-18 $lvl1=3 $lvl2=2
CA58 Mmn0@2:g VSS!:18 9.69457e-19 $lvl1=3 $lvl2=2
CA59 A:62 Mmn0@5:s 9.69218e-19 $lvl1=3 $lvl2=4
CA60 A:72 VSS!:18 9.37646e-19 $lvl1=3 $lvl2=2
CA61 A:74 VSS!:11 8.81392e-19 $lvl1=3 $lvl2=2
CA62 A VSS!:18 7.63589e-19 $lvl1=1 $lvl2=2
CA63 Mmn0@6:g VSS!:4 7.56636e-19 $lvl1=3 $lvl2=2
CA64 A:90 VSS!:18 7.40891e-19 $lvl1=1 $lvl2=2
CA65 Mmn0@6:g VSS!:11 1.30448e-16 $lvl1=3 $lvl2=2
CA66 A:62 VSS!:18 1.15309e-17 $lvl1=3 $lvl2=2
CA67 A:74 VSS!:18 1.26656e-16 $lvl1=3 $lvl2=2
CA68 A:68 VSS!:1 1.32974e-16 $lvl1=3 $lvl2=2
CA69 Mmn0@1:g VSS!:21 1.35313e-16 $lvl1=3 $lvl2=2
CA70 A:72 VSS!:11 1.3165e-16 $lvl1=3 $lvl2=2
CA71 A:85 VSS!:18 1.07529e-17 $lvl1=2 $lvl2=2
CA72 A:82 VSS!:24 1.26783e-16 $lvl1=3 $lvl2=2
CA73 A:85 VSS!:11 1.00721e-17 $lvl1=2 $lvl2=2
CA74 A:76 VSS!:18 1.25877e-16 $lvl1=3 $lvl2=2
CA75 Mmn0@2:g VSS!:21 1.29297e-16 $lvl1=3 $lvl2=2
CA76 A:62 VSS!:21 1.04736e-17 $lvl1=3 $lvl2=2
CA77 A:85 VDD! 9.4377e-18 $lvl1=2 $lvl2=1
CA78 A:77 VDD!:6 8.83807e-18 $lvl1=3 $lvl2=2
CA79 A:62 VDD!:15 8.78262e-18 $lvl1=3 $lvl2=2
CA80 A:85 VDD!:18 8.71286e-18 $lvl1=2 $lvl2=2
CA81 A:75 VDD!:6 8.42831e-18 $lvl1=3 $lvl2=2
CA82 A:62 VDD!:12 8.20167e-18 $lvl1=3 $lvl2=2
CA83 A:85 VDD!:12 8.05536e-18 $lvl1=2 $lvl2=2
CA84 A:85 VDD!:15 8.04377e-18 $lvl1=2 $lvl2=2
CA85 A:79 VDD!:5 7.85248e-18 $lvl1=3 $lvl2=2
CA86 A:90 VDD! 7.81617e-18 $lvl1=1 $lvl2=1
CA87 A:62 VDD!:18 7.70439e-18 $lvl1=3 $lvl2=2
CA88 Mmp0@1:g VDD!:5 7.50156e-18 $lvl1=3 $lvl2=2
CA89 A:71 VDD!:6 7.14357e-18 $lvl1=3 $lvl2=2
CA90 A:83 VDD!:4 7.00987e-18 $lvl1=3 $lvl2=2
CA91 A:85 VDD!:23 6.99177e-18 $lvl1=2 $lvl2=2
CA92 A:73 VDD!:6 6.9507e-18 $lvl1=3 $lvl2=2
CA93 A:62 VDD!:1 6.62968e-18 $lvl1=3 $lvl2=2
CA94 A:62 VDD!:23 5.54676e-18 $lvl1=3 $lvl2=2
CA95 A:87 VDD! 4.92778e-18 $lvl1=2 $lvl2=1
CA96 A:57 VDD!:20 4.91098e-18 $lvl1=3 $lvl2=2
CA97 A:85 VDD!:1 4.53417e-18 $lvl1=2 $lvl2=2
CA98 A VDD!:26 3.89949e-18 $lvl1=1 $lvl2=1
CA99 A:57 VDD!:6 3.89075e-18 $lvl1=3 $lvl2=2
CA100 A:87 VDD!:1 3.65683e-18 $lvl1=2 $lvl2=2
CA101 A VDD!:15 3.0127e-18 $lvl1=1 $lvl2=2
CA102 A:62 Mmp0@1:s 1.90682e-18 $lvl1=3 $lvl2=4
CA103 A:83 VDD!:5 1.86912e-18 $lvl1=3 $lvl2=2
CA104 A:77 VDD!:5 1.81409e-18 $lvl1=3 $lvl2=2
CA105 A:62 Mmp0@7:s 1.62042e-18 $lvl1=3 $lvl2=4
CA106 Mmp0@1:g VDD!:4 1.57743e-18 $lvl1=3 $lvl2=2
CA107 A:86 VDD!:12 1.46773e-18 $lvl1=2 $lvl2=2
CA108 A:62 Mmp0@5:s 1.33227e-18 $lvl1=3 $lvl2=4
CA109 A:90 VDD!:1 1.22017e-18 $lvl1=1 $lvl2=2
CA110 A:62 Mmp0:s 1.19337e-18 $lvl1=3 $lvl2=4
CA111 A:77 VDD!:15 2.46747e-16 $lvl1=3 $lvl2=2
CA112 A:73 VDD!:18 2.62094e-16 $lvl1=3 $lvl2=2
CA113 Mmp0@1:g VDD!:12 2.49386e-16 $lvl1=3 $lvl2=2
CA114 A:83 VDD!:1 2.59876e-16 $lvl1=3 $lvl2=2
CA115 A VDD!:1 1.12255e-17 $lvl1=1 $lvl2=2
CA116 A VDD!:12 1.78586e-17 $lvl1=1 $lvl2=2
CA117 A:57 VDD!:23 2.50682e-16 $lvl1=3 $lvl2=2
CA118 A:79 VDD!:12 2.52328e-16 $lvl1=3 $lvl2=2
CA119 A:75 VDD!:15 2.47781e-16 $lvl1=3 $lvl2=2
CA120 A:71 VDD!:18 2.43589e-16 $lvl1=3 $lvl2=2
CA121 A:62 VDD! 2.1654e-17 $lvl1=3 $lvl2=1
CA122 A VDD! 2.32784e-17 $lvl1=1 $lvl2=1
CA123 A:62 Y:36 9.56365e-18 $lvl1=3 $lvl2=2
CA124 A:62 Y:16 9.46524e-18 $lvl1=3 $lvl2=2
CA125 A:62 Y:6 8.93214e-18 $lvl1=3 $lvl2=2
CA126 A:85 Y:6 8.2348e-18 $lvl1=2 $lvl2=2
CA127 A Y:45 7.13339e-18 $lvl1=1 $lvl2=1
CA128 A:62 Y:42 7.09027e-18 $lvl1=3 $lvl2=1
CA129 A:90 Y:6 7.02897e-18 $lvl1=1 $lvl2=2
CA130 A Y:5 6.86584e-18 $lvl1=1 $lvl2=2
CA131 A:85 Y:15 6.64313e-18 $lvl1=2 $lvl2=2
CA132 A:85 Y:25 6.47348e-18 $lvl1=2 $lvl2=2
CA133 A:85 Y:47 6.36608e-18 $lvl1=2 $lvl2=1
CA134 A:85 Y:35 5.38997e-18 $lvl1=2 $lvl2=2
CA135 A Y:49 4.79493e-18 $lvl1=1 $lvl2=1
CA136 A:85 Y:48 4.59194e-18 $lvl1=2 $lvl2=1
CA137 A:62 Y:25 4.41505e-18 $lvl1=3 $lvl2=2
CA138 A Y:48 4.39593e-18 $lvl1=1 $lvl2=1
CA139 A Y:11 4.30993e-18 $lvl1=1 $lvl2=2
CA140 A Y:42 4.21292e-18 $lvl1=1 $lvl2=1
CA141 A:62 Y:21 4.18342e-18 $lvl1=3 $lvl2=2
CA142 A:62 Y:35 4.06909e-18 $lvl1=3 $lvl2=2
CA143 A:62 Y:15 3.97201e-18 $lvl1=3 $lvl2=2
CA144 A:62 Y:1 3.96702e-18 $lvl1=3 $lvl2=2
CA145 A:62 Y:11 3.8365e-18 $lvl1=3 $lvl2=2
CA146 A:62 Y:5 3.62536e-18 $lvl1=3 $lvl2=2
CA147 A:85 Y:5 3.59381e-18 $lvl1=2 $lvl2=2
CA148 A:62 Y:31 3.52844e-18 $lvl1=3 $lvl2=2
CA149 A:85 Y:11 3.29674e-18 $lvl1=2 $lvl2=2
CA150 A Y:15 2.98594e-18 $lvl1=1 $lvl2=2
CA151 A:85 Y:21 2.93822e-18 $lvl1=2 $lvl2=2
CA152 A Y:41 2.44034e-18 $lvl1=1 $lvl2=1
CA153 A:90 Y:16 2.29248e-18 $lvl1=1 $lvl2=2
CA154 A:85 Y:1 2.28324e-18 $lvl1=2 $lvl2=2
CA155 A:86 Y:6 2.13238e-18 $lvl1=2 $lvl2=2
CA156 A:85 Y:49 2.0086e-18 $lvl1=2 $lvl2=1
CA157 A:62 Mmn0@2:d 1.8468e-18 $lvl1=3 $lvl2=4
CA158 A Y:47 1.661e-18 $lvl1=1 $lvl2=1
CA159 A:62 Mmn0:d 1.59883e-18 $lvl1=3 $lvl2=4
CA160 A:62 Mmn0@4:d 1.57573e-18 $lvl1=3 $lvl2=4
CA161 A:85 Y:37 1.5509e-18 $lvl1=2 $lvl2=2
CA162 A:85 Y:31 1.48729e-18 $lvl1=2 $lvl2=2
CA163 A:62 Mmp0@4:d 1.47841e-18 $lvl1=3 $lvl2=4
CA164 A:90 Y:42 1.3405e-18 $lvl1=1 $lvl2=1
CA165 A:62 Mmn0@6:d 1.3268e-18 $lvl1=3 $lvl2=4
CA166 A:68 Y:40 1.24882e-18 $lvl1=3 $lvl2=2
CA167 A:90 Y:47 1.20972e-18 $lvl1=1 $lvl2=1
CA168 A:87 Y:6 1.19832e-18 $lvl1=2 $lvl2=2
CA169 A Y:16 1.19635e-18 $lvl1=1 $lvl2=2
CA170 A:86 Y:5 1.12068e-18 $lvl1=2 $lvl2=2
CA171 A:57 Y:35 1.1111e-18 $lvl1=3 $lvl2=2
CA172 A:85 Y:41 1.10477e-18 $lvl1=2 $lvl2=1
CA173 A:77 Y:15 1.01877e-18 $lvl1=3 $lvl2=2
CA174 A Y:6 9.80681e-19 $lvl1=1 $lvl2=2
CA175 A:62 Mmp0:d 9.46196e-19 $lvl1=3 $lvl2=4
CA176 A:79 Y:15 9.35586e-19 $lvl1=3 $lvl2=2
CA177 A:71 Y:35 9.26972e-19 $lvl1=3 $lvl2=2
CA178 A:75 Y:25 9.26128e-19 $lvl1=3 $lvl2=2
CA179 A:62 Mmp0@2:d 8.75379e-19 $lvl1=3 $lvl2=4
CA180 Mmn0@2:g Y:6 8.68527e-19 $lvl1=3 $lvl2=2
CA181 A:82 Y:10 8.6819e-19 $lvl1=3 $lvl2=2
CA182 A:62 Y:48 8.46702e-19 $lvl1=3 $lvl2=1
CA183 A:83 Y:5 8.34054e-19 $lvl1=3 $lvl2=2
CA184 A:85 Mmp0@2:d 8.28983e-19 $lvl1=2 $lvl2=4
CA185 A:62 Y:47 8.14422e-19 $lvl1=3 $lvl2=1
CA186 Mmn0@2:g Y:20 8.05389e-19 $lvl1=3 $lvl2=2
CA187 A:85 Y:46 8.01779e-19 $lvl1=2 $lvl2=1
CA188 A:62 Mmp0@6:d 7.93025e-19 $lvl1=3 $lvl2=4
CA189 A:74 Y:30 7.6511e-19 $lvl1=3 $lvl2=2
CA190 Mmn0@6:g Y:26 7.6049e-19 $lvl1=3 $lvl2=2
CA191 Mmp0@1:g Y:5 7.43554e-19 $lvl1=3 $lvl2=2
CA192 A:73 Y:31 7.42928e-19 $lvl1=3 $lvl2=2
CA193 A:72 Y:30 7.30105e-19 $lvl1=3 $lvl2=2
CA194 A:90 Y:49 2.10787e-17 $lvl1=1 $lvl2=1
CA195 A:77 Y:11 2.48808e-16 $lvl1=3 $lvl2=2
CA196 Mmn0@1:g Y:6 1.21749e-16 $lvl1=3 $lvl2=2
CA197 A:75 Y:21 2.47761e-16 $lvl1=3 $lvl2=2
CA198 A Y:1 1.11069e-17 $lvl1=1 $lvl2=2
CA199 A:85 Y:42 4.59998e-17 $lvl1=2 $lvl2=1
CA200 A:73 Y:21 2.47862e-16 $lvl1=3 $lvl2=2
CA201 A:71 Y:31 2.56571e-16 $lvl1=3 $lvl2=2
CA202 A:76 Y:16 1.2475e-16 $lvl1=3 $lvl2=2
CA203 A:90 Y:48 1.11608e-17 $lvl1=1 $lvl2=1
CA204 A:57 Y:31 2.48206e-16 $lvl1=3 $lvl2=2
CA205 A:82 Y:6 1.27227e-16 $lvl1=3 $lvl2=2
CA206 A:83 Y:1 2.47039e-16 $lvl1=3 $lvl2=2
CA207 Mmp0@1:g Y:1 2.51227e-16 $lvl1=3 $lvl2=2
CA208 A:72 Y:26 1.26207e-16 $lvl1=3 $lvl2=2
CA209 A:85 Y:36 1.03762e-17 $lvl1=2 $lvl2=2
CA210 A:85 Y:26 1.29469e-17 $lvl1=2 $lvl2=2
CA211 A:74 Y:26 1.25555e-16 $lvl1=3 $lvl2=2
CA212 A:85 Y:16 1.3031e-17 $lvl1=2 $lvl2=2
CA213 A:62 Y:26 1.03406e-17 $lvl1=3 $lvl2=2
CA214 Mmn0@6:g Y:36 1.24193e-16 $lvl1=3 $lvl2=2
CA215 A Y:46 1.08141e-17 $lvl1=1 $lvl2=1
CA216 Mmn0@2:g Y:16 1.26331e-16 $lvl1=3 $lvl2=2
CA217 A:68 Y:36 1.2663e-16 $lvl1=3 $lvl2=2
CA218 A:79 Y:11 2.44466e-16 $lvl1=3 $lvl2=2
ReA1 A:88 A 0.310096 $metal1  $L=0.645 $W=0.260000 $SI_W=0.26 $TYPE=10 $DIR=1 $LLX=0.790000 $LLY=1.910000 $URX=1.050000 $URY=2.555000 $lvl=1
ReA2 A A:89 0.064904 $metal1  $L=0.135 $W=0.260000 $SI_W=0.26 $TYPE=10 $DIR=1 $LLX=0.805000 $LLY=1.775000 $URX=1.065000 $URY=1.910000 $lvl=1
ReA3 A:89 A:90 0.221154 $metal1  $L=0.46 $W=0.260000 $SI_W=0.26 $TYPE=10 $DIR=1 $LLX=0.790000 $LLY=1.315000 $URX=1.050000 $URY=1.775000 $lvl=1
RfA4 A:84 A:85 127.247055 $li  $L=1.69 $W=0.170000 $SI_W=0.17 $TYPE=10 $DIR=0 $LLX=1.980000 $LLY=1.690000 $URX=3.670000 $URY=1.860000 $lvl=2
RfA5 A:85 A:86 79.811768 $li  $L=1.06 $W=0.170000 $SI_W=0.17 $TYPE=10 $DIR=0 $LLX=0.920000 $LLY=1.690000 $URX=1.980000 $URY=1.860000 $lvl=2
RfA6 A:86 A:87 47.435295 $li  $L=0.63 $W=0.170000 $SI_W=0.17 $TYPE=10 $DIR=0 $LLX=0.290000 $LLY=1.690000 $URX=0.920000 $URY=1.860000 $lvl=2
RgA7 A:57 Mmp0@7:g 282.773346 $poly  $L=0.88 $W=0.150000 $SI_W=0.15 $TYPE=10 $DIR=1 $LLX=3.410000 $LLY=3.015000 $URX=3.560000 $URY=3.895000 $lvl=3
RgA8 Mmp0@7:g A:58 379.128723 $poly  $L=1.23975 $W=0.150000 $SI_W=0.15 $TYPE=10 $DIR=1 $LLX=3.410000 $LLY=1.775000 $URX=3.560000 $URY=3.015000 $lvl=3
RgA9 A:58 A:59 76.762962 $poly  $L=0.43 $W=0.270000 $SI_W=0.27 $TYPE=10 $DIR=0 $LLX=3.055000 $LLY=1.640000 $URX=3.485000 $URY=1.910000 $lvl=3
RgA10 A:59 A:60 76.762962 $poly  $L=0.43 $W=0.270000 $SI_W=0.27 $TYPE=10 $DIR=0 $LLX=2.625000 $LLY=1.640000 $URX=3.055000 $URY=1.910000 $lvl=3
RgA11 A:60 A:61 76.762962 $poly  $L=0.43 $W=0.270000 $SI_W=0.27 $TYPE=10 $DIR=0 $LLX=2.195000 $LLY=1.640000 $URX=2.625000 $URY=1.910000 $lvl=3
RgA12 A:61 A:62 38.426109 $poly  $L=0.21525 $W=0.270000 $SI_W=0.27 $TYPE=10 $DIR=0 $LLX=1.980000 $LLY=1.640000 $URX=2.195000 $URY=1.910000 $lvl=3
RgA13 A:62 A:63 38.336849 $poly  $L=0.21475 $W=0.270000 $SI_W=0.27 $TYPE=10 $DIR=0 $LLX=1.765000 $LLY=1.640000 $URX=1.980000 $URY=1.910000 $lvl=3
RgA14 A:63 A:64 76.762962 $poly  $L=0.43 $W=0.270000 $SI_W=0.27 $TYPE=10 $DIR=0 $LLX=1.335000 $LLY=1.640000 $URX=1.765000 $URY=1.910000 $lvl=3
RgA15 A:64 A:65 76.762962 $poly  $L=0.43 $W=0.270000 $SI_W=0.27 $TYPE=10 $DIR=0 $LLX=0.905000 $LLY=1.640000 $URX=1.335000 $URY=1.910000 $lvl=3
RgA16 A:65 A:66 76.762962 $poly  $L=0.43 $W=0.270000 $SI_W=0.27 $TYPE=10 $DIR=0 $LLX=0.475000 $LLY=1.640000 $URX=0.905000 $URY=1.910000 $lvl=3
RgA17 A:66 A:67 29.500185 $poly  $L=0.16525 $W=0.270000 $SI_W=0.27 $TYPE=10 $DIR=0 $LLX=0.310000 $LLY=1.640000 $URX=0.475000 $URY=1.910000 $lvl=3
RgA18 A:58 Mmn0@7:g 239.437958 $poly  $L=0.80525 $W=0.150000 $SI_W=0.15 $TYPE=10 $DIR=1 $LLX=3.410000 $LLY=0.970000 $URX=3.560000 $URY=1.775000 $lvl=3
RgA19 Mmn0@7:g A:68 170.306671 $poly  $L=0.53 $W=0.150000 $SI_W=0.15 $TYPE=10 $DIR=1 $LLX=3.410000 $LLY=0.440000 $URX=3.560000 $URY=0.970000 $lvl=3
RgA20 A:58 A:69 29.321667 $poly  $L=0.16425 $W=0.270000 $SI_W=0.27 $TYPE=10 $DIR=0 $LLX=3.485000 $LLY=1.640000 $URX=3.649000 $URY=1.910000 $lvl=3
RgA21 A:59 Mmn0@6:g 239.437958 $poly  $L=0.80525 $W=0.150000 $SI_W=0.15 $TYPE=10 $DIR=1 $LLX=2.980000 $LLY=0.970000 $URX=3.130000 $URY=1.775000 $lvl=3
RgA22 Mmn0@6:g A:70 170.306671 $poly  $L=0.53 $W=0.150000 $SI_W=0.15 $TYPE=10 $DIR=1 $LLX=2.980000 $LLY=0.440000 $URX=3.130000 $URY=0.970000 $lvl=3
RgA23 A:59 Mmp0@6:g 379.128723 $poly  $L=1.23975 $W=0.150000 $SI_W=0.15 $TYPE=10 $DIR=1 $LLX=2.980000 $LLY=1.775000 $URX=3.130000 $URY=3.015000 $lvl=3
RgA24 Mmp0@6:g A:71 282.773346 $poly  $L=0.88 $W=0.150000 $SI_W=0.15 $TYPE=10 $DIR=1 $LLX=2.980000 $LLY=3.015000 $URX=3.130000 $URY=3.895000 $lvl=3
RgA25 A:60 Mmn0@5:g 239.437958 $poly  $L=0.80525 $W=0.150000 $SI_W=0.15 $TYPE=10 $DIR=1 $LLX=2.550000 $LLY=0.970000 $URX=2.700000 $URY=1.775000 $lvl=3
RgA26 Mmn0@5:g A:72 170.306671 $poly  $L=0.53 $W=0.150000 $SI_W=0.15 $TYPE=10 $DIR=1 $LLX=2.550000 $LLY=0.440000 $URX=2.700000 $URY=0.970000 $lvl=3
RgA27 A:60 Mmp0@5:g 379.128723 $poly  $L=1.23975 $W=0.150000 $SI_W=0.15 $TYPE=10 $DIR=1 $LLX=2.550000 $LLY=1.775000 $URX=2.700000 $URY=3.015000 $lvl=3
RgA28 Mmp0@5:g A:73 282.773346 $poly  $L=0.88 $W=0.150000 $SI_W=0.15 $TYPE=10 $DIR=1 $LLX=2.550000 $LLY=3.015000 $URX=2.700000 $URY=3.895000 $lvl=3
RgA29 A:61 Mmn0@4:g 239.437958 $poly  $L=0.80525 $W=0.150000 $SI_W=0.15 $TYPE=10 $DIR=1 $LLX=2.120000 $LLY=0.970000 $URX=2.270000 $URY=1.775000 $lvl=3
RgA30 Mmn0@4:g A:74 170.306671 $poly  $L=0.53 $W=0.150000 $SI_W=0.15 $TYPE=10 $DIR=1 $LLX=2.120000 $LLY=0.440000 $URX=2.270000 $URY=0.970000 $lvl=3
RgA31 A:61 Mmp0@4:g 379.128723 $poly  $L=1.23975 $W=0.150000 $SI_W=0.15 $TYPE=10 $DIR=1 $LLX=2.120000 $LLY=1.775000 $URX=2.270000 $URY=3.015000 $lvl=3
RgA32 Mmp0@4:g A:75 282.773346 $poly  $L=0.88 $W=0.150000 $SI_W=0.15 $TYPE=10 $DIR=1 $LLX=2.120000 $LLY=3.015000 $URX=2.270000 $URY=3.895000 $lvl=3
RgA33 A:63 Mmn0@3:g 239.437958 $poly  $L=0.80525 $W=0.150000 $SI_W=0.15 $TYPE=10 $DIR=1 $LLX=1.690000 $LLY=0.970000 $URX=1.840000 $URY=1.775000 $lvl=3
RgA34 Mmn0@3:g A:76 170.306671 $poly  $L=0.53 $W=0.150000 $SI_W=0.15 $TYPE=10 $DIR=1 $LLX=1.690000 $LLY=0.440000 $URX=1.840000 $URY=0.970000 $lvl=3
RgA35 A:63 Mmp0@3:g 379.128723 $poly  $L=1.23975 $W=0.150000 $SI_W=0.15 $TYPE=10 $DIR=1 $LLX=1.690000 $LLY=1.775000 $URX=1.840000 $URY=3.015000 $lvl=3
RgA36 Mmp0@3:g A:77 282.773346 $poly  $L=0.88 $W=0.150000 $SI_W=0.15 $TYPE=10 $DIR=1 $LLX=1.690000 $LLY=3.015000 $URX=1.840000 $URY=3.895000 $lvl=3
RgA37 A:64 Mmn0@2:g 239.437958 $poly  $L=0.80525 $W=0.150000 $SI_W=0.15 $TYPE=10 $DIR=1 $LLX=1.260000 $LLY=0.970000 $URX=1.410000 $URY=1.775000 $lvl=3
RgA38 Mmn0@2:g A:78 170.306671 $poly  $L=0.53 $W=0.150000 $SI_W=0.15 $TYPE=10 $DIR=1 $LLX=1.260000 $LLY=0.440000 $URX=1.410000 $URY=0.970000 $lvl=3