*
*|DSPF 1.5
*
*|DATE "Wed Jan  8 21:18:49 2025"
*|VENDOR "Cadence Design Systems"
*|PROGRAM "Cadence Quantus Extraction"
*|VERSION "22.1.0-p089 Linux 64 bit - (Thu Jan 19 11:47:08 PST 2023)"
*|DESIGN MX2X4_HS
*|DIVIDER /
*|DELIMITER :
*|DeviceFingerDelim "@"
*|BUSBIT []
*|GLOBAL_TEMPERATURE 25
*|OPERATING_TEMPERATURE 25

** *VIA_COVERAGE_CODES
** *index FF FS FP FU SF SS SP SU PF PS PP PU UF US UP UU X_by_Y
** * "FF" stands for Full landing and Full coverage
** *0 0 0 0 0 0 0 0 0 0 0 0 0 0 0 0 0
** *1 0 0 0 0 0 0 0 0 0 0 0 0 0 0 0 1 1x1
** *2 0 0 0 0 0 0 0 0 0 0 0 0 0 0 1 0 1x1
** *3 0 0 0 0 0 0 0 0 0 0 0 0 0 1 0 0 1x1
** *4 0 0 0 0 0 0 0 0 0 0 0 0 1 0 0 0 1x1
** *5 0 0 0 0 0 0 0 0 0 0 0 1 0 0 0 0 1x1
** *6 0 0 0 0 0 0 0 0 0 0 1 0 0 0 0 0 1x1
** *7 0 0 0 0 0 0 0 0 0 1 0 0 0 0 0 0 1x1
** *8 0 0 0 0 0 0 0 0 1 0 0 0 0 0 0 0 1x1
** *9 0 0 0 0 0 0 0 1 0 0 0 0 0 0 0 0 1x1
** *10 0 0 0 0 0 0 1 0 0 0 0 0 0 0 0 0 1x1
** *11 0 0 0 0 0 1 0 0 0 0 0 0 0 0 0 0 1x1
** *12 0 0 0 0 1 0 0 0 0 0 0 0 0 0 0 0 1x1
** *13 0 0 0 1 0 0 0 0 0 0 0 0 0 0 0 0 1x1
** *14 0 0 1 0 0 0 0 0 0 0 0 0 0 0 0 0 1x1
** *15 0 1 0 0 0 0 0 0 0 0 0 0 0 0 0 0 1x1
** *16 1 0 0 0 0 0 0 0 0 0 0 0 0 0 0 0 1x1

** *RESISTOR_TYPES
** *1 SHORTING_ELEMENT
** *2 PRES_NG
** *3 PRES_PG
** *4 PRES_NF
** *5 PRES_PF
** *6 TCN_NDIFF
** *7 TCN_PDIFF
** *8 TCN_NFIELD
** *9 TCN_PFIELD
** *10 QUALITY_EXTRACTED
** *11 GCNLAND
** *12 TCNLAND
** *13 DUMMY
** *14 RSD
** *15 BRIDGE

** *RESISTOR_CURRENT_DIRECTION
** *0 HORIZONTAL
** *1 VERTICAL
** *2 45 DEGREE

** QRC_TECH_DIR /vols/wfo_devel/projects/reference_SKY130/tech/sky130_release_0.0.4/quantus/extraction/typical 
** HIERARCHICAL_SPLIT_PINS_DELIMITER '%'
** caps2d version: 10
*
.SUBCKT  MX2X4_HS A B S0 Y
*
*Net Section
*
*|GROUND_NET VSS!
*
*LAYER_MAP
*0 none
*1 metal1
*2 li
*3 poly
*4 diff
*5 licon_diff
*6 mcon
*7 licon
*8 FOX

*|NET A 1.00627e-15
*|P (A X 0 0.9350 1.7700) // $llx=0.9350 $lly=1.7700 $urx=0.9350 $ury=1.7700 $lvl=1
*|I (Mmp1:g Mmp1 g X 0 0.9650 3.1200) // $llx=0.9650 $lly=3.1200 $urx=0.9650 $ury=3.1200 $lvl=3
*|I (Mmn1:g Mmn1 g X 0 0.9650 0.6950) // $llx=0.9650 $lly=0.6950 $urx=0.9650 $ury=0.6950 $lvl=3
*|S (A:8 0.9650 3.8950) // $llx=0.9650 $lly=3.8950 $urx=0.9650 $ury=3.8950 $lvl=3
*|S (A:9 0.9650 2.2200) // $llx=0.9650 $lly=2.2200 $urx=0.9650 $ury=2.2200 $lvl=3
*|S (A:10 0.7950 2.2200) // $llx=0.7950 $lly=2.2200 $urx=0.7950 $ury=2.2200 $lvl=3
*|S (A:11 0.8550 1.6045) // $llx=0.8550 $lly=1.6045 $urx=0.8550 $ury=1.6045 $lvl=3
*|S (A:12 0.8550 1.4400) // $llx=0.8550 $lly=1.4400 $urx=0.8550 $ury=1.4400 $lvl=3
*|S (A:13 0.9400 1.2750) // $llx=0.9400 $lly=1.2750 $urx=0.9400 $ury=1.2750 $lvl=3
*|S (A:14 0.9650 0.2450) // $llx=0.9650 $lly=0.2450 $urx=0.9650 $ury=0.2450 $lvl=3
*|S (A:15 0.9050 1.4400) // $llx=0.9050 $lly=1.4400 $urx=0.9050 $ury=1.4400 $lvl=2
*|S (A:16 0.8550 1.4400) // $llx=0.8550 $lly=1.4400 $urx=0.8550 $ury=1.4400 $lvl=2
*|S (A:17 0.9200 2.4150) // $llx=0.9200 $lly=2.4150 $urx=0.9200 $ury=2.4150 $lvl=1
*|S (A:18 0.9050 1.4400) // $llx=0.9050 $lly=1.4400 $urx=0.9050 $ury=1.4400 $lvl=1
*|S (A:19 0.9200 0.9800) // $llx=0.9200 $lly=0.9800 $urx=0.9200 $ury=0.9800 $lvl=1
CA1 A:18 VSS! 4.37799e-18 $lvl=1
CA2 A:17 VSS! 5.92879e-18 $lvl=1
CA3 A:19 VSS! 5.78436e-18 $lvl=1
CA4 A:8 VSS! 3.46347e-18 $lvl=3
CA5 A:14 VSS! 2.4796e-18 $lvl=3
CA6 A:16 VSS! 3.94669e-18 $lvl=2
CA7 A:15 VSS! 2.66395e-18 $lvl=2
CA8 A:12 VSS! 1.68593e-17 $lvl=3
CA9 A:17 n4:3 1.66867e-18 $lvl1=1 $lvl2=2
CA10 A:17 n4:4 1.60075e-18 $lvl1=1 $lvl2=2
CA11 A:8 n4 1.35427e-18 $lvl1=3 $lvl2=2
CA12 A:16 n3 1.44458e-18 $lvl1=2 $lvl2=2
CA13 A:15 n3 1.2387e-18 $lvl1=2 $lvl2=2
CA14 A:12 n3 1.15876e-18 $lvl1=3 $lvl2=2
CA15 A:14 n3:4 1.03839e-18 $lvl1=3 $lvl2=2
CA16 A:12 n3:3 1.02627e-18 $lvl1=3 $lvl2=2
CA17 A:14 n3 9.9072e-19 $lvl1=3 $lvl2=2
CA18 A:19 n3:4 5.33935e-19 $lvl1=1 $lvl2=2
CA19 A:15 n3:3 5.31987e-19 $lvl1=2 $lvl2=2
CA20 A:14 n3:3 6.84412e-17 $lvl1=3 $lvl2=2
CA21 A:19 n3:3 3.44432e-18 $lvl1=1 $lvl2=2
CA22 A:19 n3 3.06003e-18 $lvl1=1 $lvl2=2
CA23 A:8 n4:3 1.30561e-16 $lvl1=3 $lvl2=2
CA24 A:19 n0:64 4.56938e-18 $lvl1=1 $lvl2=1
CA25 A:17 n0:63 2.31379e-18 $lvl1=1 $lvl2=1
CA26 A:8 n0:42 1.75767e-18 $lvl1=3 $lvl2=2
CA27 A:17 n0:58 1.75e-18 $lvl1=1 $lvl2=1
CA28 A:18 n0:60 1.34039e-18 $lvl1=1 $lvl2=1
CA29 A:17 n0:62 1.04973e-18 $lvl1=1 $lvl2=1
CA30 A:19 n0:58 9.02396e-19 $lvl1=1 $lvl2=1
CA31 A:19 n0:59 8.91393e-19 $lvl1=1 $lvl2=1
CA32 A:17 n0:60 6.54512e-19 $lvl1=1 $lvl2=1
CA33 A:19 n0:50 6.50638e-19 $lvl1=1 $lvl2=2
CA34 A:19 n0:47 6.21602e-19 $lvl1=1 $lvl2=2
CA35 A:17 n0:59 6.19706e-19 $lvl1=1 $lvl2=1
CA36 A:18 n0:58 5.82057e-19 $lvl1=1 $lvl2=1
CA37 A:19 n0:60 8.92661e-18 $lvl1=1 $lvl2=1
CA38 A:19 S0b:32 4.16129e-18 $lvl1=1 $lvl2=1
CA39 A:14 S0b:10 2.82328e-18 $lvl1=3 $lvl2=3
CA40 A:15 S0b:28 2.63475e-18 $lvl1=2 $lvl2=2
CA41 A:19 S0b:28 2.56238e-18 $lvl1=1 $lvl2=2
CA42 A:17 S0b:34 2.54828e-18 $lvl1=1 $lvl2=1
CA43 A:8 S0b:23 2.4828e-18 $lvl1=3 $lvl2=2
CA44 A:16 S0b:10 2.39875e-18 $lvl1=2 $lvl2=3
CA45 A:16 S0b:34 1.87901e-18 $lvl1=2 $lvl2=1
CA46 A:12 S0b:28 1.87692e-18 $lvl1=3 $lvl2=2
CA47 A:17 S0b:24 1.85717e-18 $lvl1=1 $lvl2=2
CA48 A:8 S0b:25 1.5897e-18 $lvl1=3 $lvl2=2
CA49 A:15 S0b:34 1.41969e-18 $lvl1=2 $lvl2=1
CA50 A:12 S0b:23 1.38367e-18 $lvl1=3 $lvl2=2
CA51 A:16 S0b:32 1.25488e-18 $lvl1=2 $lvl2=1
CA52 A:15 S0b:32 1.05735e-18 $lvl1=2 $lvl2=1
CA53 A:18 S0b:28 1.00161e-18 $lvl1=1 $lvl2=2
CA54 A:12 S0b:18 9.971e-19 $lvl1=3 $lvl2=2
CA55 A:19 S0b:19 8.27675e-19 $lvl1=1 $lvl2=2
CA56 A:12 S0b:8 7.84264e-19 $lvl1=3 $lvl2=3
CA57 A:12 S0b:34 7.07959e-19 $lvl1=3 $lvl2=1
CA58 A:8 S0b:14 6.99262e-19 $lvl1=3 $lvl2=2
CA59 A:19 S0b:18 6.94898e-19 $lvl1=1 $lvl2=2
CA60 A:16 S0b:18 6.83911e-19 $lvl1=2 $lvl2=2
CA61 A:14 S0b:18 6.21735e-19 $lvl1=3 $lvl2=2
CA62 A:17 S0b:14 5.40088e-19 $lvl1=1 $lvl2=2
CA63 A:12 S0b:25 3.74966e-19 $lvl1=3 $lvl2=2
CA64 A:8 S0b:13 3.72512e-19 $lvl1=3 $lvl2=3
CA65 A:15 S0b:10 3.48949e-19 $lvl1=2 $lvl2=3
CA66 A:14 S0b:28 3.32381e-19 $lvl1=3 $lvl2=2
CA67 A:18 S0b:30 3.27083e-19 $lvl1=1 $lvl2=1
CA68 A:19 S0b:10 3.10611e-19 $lvl1=1 $lvl2=3
CA69 A:12 S0b:32 3.09476e-19 $lvl1=3 $lvl2=1
CA70 A:15 S0b:18 3.00008e-19 $lvl1=2 $lvl2=2
CA71 A:18 S0b:23 2.94679e-19 $lvl1=1 $lvl2=2
CA72 A:19 S0b:30 2.71163e-19 $lvl1=1 $lvl2=1
CA73 A:12 Mmn0:d 2.67719e-19 $lvl1=3 $lvl2=4
CA74 A:18 S0b:34 6.27192e-18 $lvl1=1 $lvl2=1
CA75 A:17 S0b:23 1.42086e-17 $lvl1=1 $lvl2=2
CA76 A:19 S0b:34 2.08479e-17 $lvl1=1 $lvl2=1
CA77 A:17 S0b:25 5.66497e-18 $lvl1=1 $lvl2=2
CA78 A:17 S0b:30 6.89787e-18 $lvl1=1 $lvl2=1
CA79 A:18 S0b:32 1.04017e-17 $lvl1=1 $lvl2=1
CA80 A:16 S0b:28 9.12369e-18 $lvl1=2 $lvl2=2
CA81 A:17 S0b:32 3.51454e-17 $lvl1=1 $lvl2=1
CA82 A:12 S0b:10 5.89848e-18 $lvl1=3 $lvl2=3
CA83 A:16 VSS!:21 3.93242e-18 $lvl1=2 $lvl2=2
CA84 A:15 VSS!:21 3.06661e-18 $lvl1=2 $lvl2=2
CA85 A:12 Mmn1:s 1.40855e-18 $lvl1=3 $lvl2=4
CA86 A:18 VSS!:23 1.39517e-18 $lvl1=1 $lvl2=1
CA87 A:17 VSS!:23 1.24621e-18 $lvl1=1 $lvl2=1
CA88 A:14 VSS!:21 7.01672e-17 $lvl1=3 $lvl2=2
CA89 A:19 VSS!:23 9.17013e-18 $lvl1=1 $lvl2=1
CA90 A:19 VSS!:21 8.43833e-18 $lvl1=1 $lvl2=2
CA91 A:14 VSS!:10 9.55321e-18 $lvl1=3 $lvl2=2
CA92 A:12 VSS!:21 5.3128e-18 $lvl1=3 $lvl2=2
CA93 A:18 VDD! 2.66523e-18 $lvl1=1 $lvl2=1
CA94 A:17 VDD!:23 2.30158e-18 $lvl1=1 $lvl2=1
CA95 A:12 VDD! 2.00598e-18 $lvl1=3 $lvl2=1
CA96 A:17 VDD!:1 7.2113e-18 $lvl1=1 $lvl2=2
CA97 A:8 VDD!:1 1.94845e-16 $lvl1=3 $lvl2=2
CA98 A:17 VDD! 7.55668e-18 $lvl1=1 $lvl2=1
CA99 A:19 VDD! 5.05823e-18 $lvl1=1 $lvl2=1
CA100 A:8 VDD!:4 1.18699e-17 $lvl1=3 $lvl2=2
CA101 A:12 S0:26 4.86209e-18 $lvl1=3 $lvl2=3
CA102 A:18 S0:37 4.06073e-18 $lvl1=1 $lvl2=1
CA103 A:16 S0:19 2.76908e-18 $lvl1=2 $lvl2=3
CA104 A:17 S0:32 2.76127e-18 $lvl1=1 $lvl2=2
CA105 A:18 S0:34 2.06716e-18 $lvl1=1 $lvl2=2
CA106 A:15 S0:39 2.04486e-18 $lvl1=2 $lvl2=1
CA107 A:16 S0:26 1.64262e-18 $lvl1=2 $lvl2=3
CA108 A:8 S0:26 1.24917e-18 $lvl1=3 $lvl2=3
CA109 A:16 S0:39 1.08948e-18 $lvl1=2 $lvl2=1
CA110 A:18 S0:33 1.08884e-18 $lvl1=1 $lvl2=2
CA111 A:12 S0:23 1.06928e-18 $lvl1=3 $lvl2=3
CA112 A:19 S0:37 1.03328e-18 $lvl1=1 $lvl2=1
CA113 A:16 S0:32 1.02896e-18 $lvl1=2 $lvl2=2
CA114 A:15 S0:32 9.72249e-19 $lvl1=2 $lvl2=2
CA115 A:19 S0:34 8.3763e-19 $lvl1=1 $lvl2=2
CA116 A:18 S0:32 7.06873e-19 $lvl1=1 $lvl2=2
CA117 A:8 S0:19 4.34745e-19 $lvl1=3 $lvl2=3
CA118 A:12 S0:33 5.12575e-18 $lvl1=3 $lvl2=2
CA119 A:17 S0:33 7.21623e-18 $lvl1=1 $lvl2=2
CA120 A:17 S0:39 8.06835e-18 $lvl1=1 $lvl2=1
CA121 A:16 S0:34 1.35654e-17 $lvl1=2 $lvl2=2
CA122 A:17 S0:37 7.44778e-17 $lvl1=1 $lvl2=1
CA123 A:15 S0:33 5.82022e-18 $lvl1=2 $lvl2=2
CA124 A:16 S0:33 7.49177e-18 $lvl1=2 $lvl2=2
CA125 A:12 S0:34 6.45817e-18 $lvl1=3 $lvl2=2
CA126 A:18 S0:39 2.19887e-17 $lvl1=1 $lvl2=1
CA127 A:12 S0:19 8.43556e-18 $lvl1=3 $lvl2=3
CA128 A:15 S0:34 5.61259e-18 $lvl1=2 $lvl2=2
CA129 A:19 S0:39 9.99593e-18 $lvl1=1 $lvl2=1
CA130 A:17 S0:34 7.4062e-18 $lvl1=1 $lvl2=2
ReA1 A:17 A 0.310096 $metal1  $L=0.645 $W=0.260000 $SI_W=0.26 $TYPE=10 $DIR=1 $LLX=0.790000 $LLY=1.770000 $URX=1.050000 $URY=2.415000 $lvl=1
ReA2 A A:18 0.158654 $metal1  $L=0.33 $W=0.260000 $SI_W=0.26 $TYPE=10 $DIR=1 $LLX=0.790000 $LLY=1.440000 $URX=1.050000 $URY=1.770000 $lvl=1
ReA3 A:18 A:19 0.221154 $metal1  $L=0.46 $W=0.260000 $SI_W=0.26 $TYPE=10 $DIR=1 $LLX=0.790000 $LLY=0.980000 $URX=1.050000 $URY=1.440000 $lvl=1
RfA4 A:15 A:16 3.764706 $li  $L=0.05 $W=1000000 $SI_W=1000000 $TYPE=1,10 $DIR=0 $LLX=0.855000 $LLY=1.355000 $URX=0.905000 $URY=1.525000 $lvl=2
RgA5 A:8 Mmp1:g 249.033325 $poly  $L=0.775 $W=0.150000 $SI_W=0.15 $TYPE=10 $DIR=1 $LLX=0.890000 $LLY=3.120000 $URX=1.040000 $URY=3.895000 $lvl=3
RgA6 Mmp1:g A:9 289.119659 $poly  $L=0.89975 $W=0.150000 $SI_W=0.15 $TYPE=10 $DIR=1 $LLX=0.890000 $LLY=2.220000 $URX=1.040000 $URY=3.120000 $lvl=3
RgA7 A:9 A:10 54.626667 $poly  $L=0.17 $W=0.150000 $SI_W=0.15 $TYPE=10 $DIR=0 $LLX=0.795000 $LLY=2.145000 $URX=0.965000 $URY=2.295000 $lvl=3
RgA8 A:10 A:11 197.744965 $poly  $L=0.61525 $W=0.150000 $SI_W=0.15 $TYPE=10 $DIR=1 $LLX=0.720000 $LLY=1.605000 $URX=0.870000 $URY=2.220000 $lvl=3
RgA9 A:11 A:12 30.460598 $poly  $L=0.1645 $W=0.270000 $SI_W=0.27 $TYPE=10 $DIR=1 $LLX=0.720000 $LLY=1.440000 $URX=0.990000 $URY=1.604500 $lvl=3
RgA10 A:12 A:13 29.410925 $poly  $L=0.1645 $W=0.270000 $SI_W=0.27 $TYPE=10 $DIR=1 $LLX=0.720000 $LLY=1.275500 $URX=0.990000 $URY=1.440000 $lvl=3
RgA11 A:13 Mmn1:g 186.417969 $poly  $L=0.58 $W=0.100000 $SI_W=0.15 $TYPE=10 $DIR=1 $LLX=0.915000 $LLY=0.695000 $URX=1.015000 $URY=1.275000 $lvl=3
RgA12 Mmn1:g A:14 144.600006 $poly  $L=0.45 $W=0.150000 $SI_W=0.15 $TYPE=10 $DIR=1 $LLX=0.890000 $LLY=0.245000 $URX=1.040000 $URY=0.695000 $lvl=3
RjA13 A:15 A:18 152.000000 $mcon  $L=0.17 $W=0.17 $A=0.0289 $VC=0 $SAVL=0 $SAVC=0 $SI_A=0.0289 $COVER_DIR=0 $LLX=0.000000 $LLY=0.000000 $URX=0.170000 $URY=0.170000 $lvl=6
RiA14 A:12 A:16 15.000000 $licon  $L=0.17 $W=0.17 $A=0.0289 $VC=0 $SAVL=0 $SAVC=0 $SI_A=0.0289 $COVER_DIR=0 $LLX=0.000000 $LLY=0.000000 $URX=0.170000 $URY=0.170000 $lvl=7
*
*|NET n3 2.94538e-16
*|I (Mmn1:d Mmn1 d X 0 1.0405 0.6950) // $llx=1.0405 $lly=0.6950 $urx=1.0405 $ury=0.6950 $lvl=4
*|I (Mmn2:s Mmn2 s X 0 1.3195 0.6950) // $llx=1.3195 $lly=0.6950 $urx=1.3195 $ury=0.6950 $lvl=4
*|S (n3 1.1800 0.9945) // $llx=1.1800 $lly=0.9945 $urx=1.1800 $ury=0.9945 $lvl=2
*|S (n3:3 1.1800 0.6950) // $llx=1.1800 $lly=0.6950 $urx=1.1800 $ury=0.6950 $lvl=2
*|S (n3:4 1.1800 0.3950) // $llx=1.1800 $lly=0.3950 $urx=1.1800 $ury=0.3950 $lvl=2
CI1 Mmn1:d VSS! 1.40003e-18 $lvl=4
CI2 n3:3 VSS! 4.12389e-18 $lvl=2
CI3 n3:4 VSS! 1.26862e-18 $lvl=2
CI4 n3 VSS! 2.96262e-18 $lvl=2
CI5 n3:3 VSS!:7 1.04383e-18 $lvl1=2 $lvl2=2
CI6 n3:3 VSS!:8 4.53014e-19 $lvl1=2 $lvl2=4
CI7 n3 VSS!:21 5.24437e-18 $lvl1=2 $lvl2=2
CI8 n3:4 VSS!:21 4.75904e-18 $lvl1=2 $lvl2=2
CI9 n3:3 VSS!:21 2.59657e-17 $lvl1=2 $lvl2=2
CI10 n3:4 VSS!:10 1.46313e-17 $lvl1=2 $lvl2=2
CI11 n3:4 VSS!:7 2.30411e-18 $lvl1=2 $lvl2=2
CI12 n3:4 VSS!:23 3.20369e-18 $lvl1=2 $lvl2=1
CI13 n3:3 VSS!:10 6.82904e-18 $lvl1=2 $lvl2=2
CI14 Mmn1:d VSS!:10 1.55835e-18 $lvl1=4 $lvl2=2
CI15 n3:3 VSS!:23 3.20943e-18 $lvl1=2 $lvl2=1
RfI231 n3 n3:3 22.550589 $li  $L=0.2995 $W=0.170000 $SI_W=0.17 $TYPE=10 $DIR=1 $LLX=1.095000 $LLY=0.695000 $URX=1.265000 $URY=0.994500 $lvl=2
RfI232 n3:3 n3:4 22.588236 $li  $L=0.3 $W=0.170000 $SI_W=0.17 $TYPE=10 $DIR=1 $LLX=1.095000 $LLY=0.395000 $URX=1.265000 $URY=0.695000 $lvl=2
RhI233 Mmn1:d n3:3 15.000000 $licon_diff  $L=0.17 $W=0.17 $A=0.0289 $VC=0 $SAVL=0 $SAVC=0 $SI_A=0.0289 $COVER_DIR=0 $LLX=0.000000 $LLY=0.000000 $URX=0.170000 $URY=0.170000 $lvl=5
RmwI234 Mmn2:s Mmn1:d 0.001000 $diff $W=1000000 $SI_W=1000000 $TYPE=1 $DIR=0
*
*|NET n4 4.79587e-16
*|I (Mmp1:d Mmp1 d X 0 1.0405 3.1200) // $llx=1.0405 $lly=3.1200 $urx=1.0405 $ury=3.1200 $lvl=4
*|I (Mmp2:s Mmp2 s X 0 1.3195 3.1200) // $llx=1.3195 $lly=3.1200 $urx=1.3195 $ury=3.1200 $lvl=4
*|S (n4 1.1800 3.5495) // $llx=1.1800 $lly=3.5495 $urx=1.1800 $ury=3.5495 $lvl=2
*|S (n4:3 1.1800 3.0950) // $llx=1.1800 $lly=3.0950 $urx=1.1800 $ury=3.0950 $lvl=2
*|S (n4:4 1.1800 2.6450) // $llx=1.1800 $lly=2.6450 $urx=1.1800 $ury=2.6450 $lvl=2
CI16 Mmp1:d VSS! 1.59248e-18 $lvl=4
CI17 n4:3 VSS! 4.109e-18 $lvl=2
CI18 n4:4 VSS! 3.48754e-18 $lvl=2
CI19 n4 VSS! 1.66958e-18 $lvl=2
RfI235 n4 n4:3 34.221176 $li  $L=0.4545 $W=0.170000 $SI_W=0.17 $TYPE=10 $DIR=1 $LLX=1.095000 $LLY=3.094500 $URX=1.265000 $URY=3.549500 $lvl=2
RfI236 n4:3 n4:4 33.882351 $li  $L=0.45 $W=0.170000 $SI_W=0.17 $TYPE=10 $DIR=1 $LLX=1.095000 $LLY=2.645000 $URX=1.265000 $URY=3.095000 $lvl=2
Rh_2_I237 Mmp1:d n4:3 7.500000 $licon_diff  $A=0.0578 $VC=0 $SAVL=0 $SAVC=0 $SI_A=0.0578 $COVER_DIR=0 $LLX=0.000000 $LLY=0.000000 $URX=-0.057800 $URY=-2.000000 $lvl=5
RmwI238 Mmp2:s Mmp1:d 0.001000 $diff $W=1000000 $SI_W=1000000 $TYPE=1 $DIR=0
*
*|NET n5 2.89619e-16
*|I (Mmn4:s Mmn4 s X 0 1.9005 0.6950) // $llx=1.9005 $lly=0.6950 $urx=1.9005 $ury=0.6950 $lvl=4
*|I (Mmn3:d Mmn3 d X 0 2.1795 0.6950) // $llx=2.1795 $lly=0.6950 $urx=2.1795 $ury=0.6950 $lvl=4
*|S (n5 2.0400 0.9945) // $llx=2.0400 $lly=0.9945 $urx=2.0400 $ury=0.9945 $lvl=2
*|S (n5:3 2.0400 0.6950) // $llx=2.0400 $lly=0.6950 $urx=2.0400 $ury=0.6950 $lvl=2
*|S (n5:4 2.0400 0.3950) // $llx=2.0400 $lly=0.3950 $urx=2.0400 $ury=0.3950 $lvl=2
CJ1 Mmn4:s VSS! 1.76721e-18 $lvl=4
CJ2 n5:3 VSS! 3.70068e-18 $lvl=2
CJ3 n5:4 VSS! 1.25461e-18 $lvl=2
CJ4 n5 VSS! 2.86148e-18 $lvl=2
CJ5 n5:3 VSS!:7 9.8751e-19 $lvl1=2 $lvl2=2
CJ6 Mmn4:s VSS!:18 8.11517e-19 $lvl1=4 $lvl2=2
CJ7 n5:3 VSS!:18 2.14276e-17 $lvl1=2 $lvl2=2
CJ8 n5:4 VSS!:10 1.33188e-17 $lvl1=2 $lvl2=2
CJ9 n5:4 VSS!:7 2.56842e-18 $lvl1=2 $lvl2=2
CJ10 n5 VSS!:18 6.12375e-18 $lvl1=2 $lvl2=2
CJ11 Mmn4:s VSS!:10 1.74978e-18 $lvl1=4 $lvl2=2
CJ12 n5:4 VSS!:18 4.51845e-18 $lvl1=2 $lvl2=2
CJ13 n5:3 VSS!:23 3.12938e-18 $lvl1=2 $lvl2=1
CJ14 n5:3 VSS!:10 6.61529e-18 $lvl1=2 $lvl2=2
CJ15 n5:4 VSS!:23 3.28059e-18 $lvl1=2 $lvl2=1
RfJ239 n5 n5:3 22.550589 $li  $L=0.2995 $W=0.170000 $SI_W=0.17 $TYPE=10 $DIR=1 $LLX=1.955000 $LLY=0.695000 $URX=2.125000 $URY=0.994500 $lvl=2
RfJ240 n5:3 n5:4 22.588236 $li  $L=0.3 $W=0.170000 $SI_W=0.17 $TYPE=10 $DIR=1 $LLX=1.955000 $LLY=0.395000 $URX=2.125000 $URY=0.695000 $lvl=2
RhJ241 Mmn4:s n5:3 15.000000 $licon_diff  $L=0.17 $W=0.17 $A=0.0289 $VC=0 $SAVL=0 $SAVC=0 $SI_A=0.0289 $COVER_DIR=0 $LLX=0.000000 $LLY=0.000000 $URX=0.170000 $URY=0.170000 $lvl=5
RmwJ242 Mmn3:d Mmn4:s 0.001000 $diff $W=1000000 $SI_W=1000000 $TYPE=1 $DIR=0
*
*|NET n6 4.79368e-16
*|I (Mmp3:d Mmp3 d X 0 2.1795 3.1200) // $llx=2.1795 $lly=3.1200 $urx=2.1795 $ury=3.1200 $lvl=4
*|I (Mmp4:s Mmp4 s X 0 1.9005 3.1200) // $llx=1.9005 $lly=3.1200 $urx=1.9005 $ury=3.1200 $lvl=4
*|S (n6 2.0400 3.5495) // $llx=2.0400 $lly=3.5495 $urx=2.0400 $ury=3.5495 $lvl=2
*|S (n6:3 2.0400 3.0950) // $llx=2.0400 $lly=3.0950 $urx=2.0400 $ury=3.0950 $lvl=2
*|S (n6:4 2.0400 2.6450) // $llx=2.0400 $lly=2.6450 $urx=2.0400 $ury=2.6450 $lvl=2
CJ16 Mmp3:d VSS! 8.65455e-19 $lvl=4
CJ17 n6:3 VSS! 6.58982e-18 $lvl=2
CJ18 n6:4 VSS! 4.30662e-18 $lvl=2
CJ19 n6 VSS! 1.03648e-18 $lvl=2
RfJ243 n6 n6:3 34.221176 $li  $L=0.4545 $W=0.170000 $SI_W=0.17 $TYPE=10 $DIR=1 $LLX=1.955000 $LLY=3.094500 $URX=2.125000 $URY=3.549500 $lvl=2
RfJ244 n6:3 n6:4 33.882351 $li  $L=0.45 $W=0.170000 $SI_W=0.17 $TYPE=10 $DIR=1 $LLX=1.955000 $LLY=2.645000 $URX=2.125000 $URY=3.095000 $lvl=2
Rh_2_J245 Mmp3:d n6:3 7.500000 $licon_diff  $A=0.0578 $VC=0 $SAVL=0 $SAVC=0 $SI_A=0.0578 $COVER_DIR=0 $LLX=0.000000 $LLY=0.000000 $URX=-0.057800 $URY=-2.000000 $lvl=5
RmwJ246 Mmp4:s Mmp3:d 0.001000 $diff $W=1000000 $SI_W=1000000 $TYPE=1 $DIR=0
*
*|NET VDD! 3.71206e-15
*|P (VDD! X 0 2.4150 4.1450) // $llx=2.4150 $lly=4.1450 $urx=2.4150 $ury=4.1450 $lvl=1
*|I (Mmp5:s Mmp5 s X 0 2.6695 3.0150) // $llx=2.6695 $lly=3.0150 $urx=2.6695 $ury=3.0150 $lvl=4
*|I (Mmp5:b Mmp5 b X 0 2.7450 3.0150) // $llx=2.7450 $lly=3.0150 $urx=2.7450 $ury=3.0150 $lvl=8
*|I (Mmp5@1:s Mmp5@1 s X 0 3.2505 3.0150) // $llx=3.2505 $lly=3.0150 $urx=3.2505 $ury=3.0150 $lvl=4
*|I (Mmp5@1:b Mmp5@1 b X 0 3.1750 3.0150) // $llx=3.1750 $lly=3.0150 $urx=3.1750 $ury=3.0150 $lvl=8
*|I (Mmp5@2:s Mmp5@2 s X 0 3.5295 3.0150) // $llx=3.5295 $lly=3.0150 $urx=3.5295 $ury=3.0150 $lvl=4
*|I (Mmp5@2:b Mmp5@2 b X 0 3.6050 3.0150) // $llx=3.6050 $lly=3.0150 $urx=3.6050 $ury=3.0150 $lvl=8
*|I (Mmp5@3:s Mmp5@3 s X 0 4.1105 3.0150) // $llx=4.1105 $lly=3.0150 $urx=4.1105 $ury=3.0150 $lvl=4
*|I (Mmp5@3:b Mmp5@3 b X 0 4.0350 3.0150) // $llx=4.0350 $lly=3.0150 $urx=4.0350 $ury=3.0150 $lvl=8
*|I (Mmp1:s Mmp1 s X 0 0.8895 3.1200) // $llx=0.8895 $lly=3.1200 $urx=0.8895 $ury=3.1200 $lvl=4
*|I (Mmp1:b Mmp1 b X 0 0.9650 3.1200) // $llx=0.9650 $lly=3.1200 $urx=0.9650 $ury=3.1200 $lvl=8
*|I (Mmp2:b Mmp2 b X 0 1.3950 3.1200) // $llx=1.3950 $lly=3.1200 $urx=1.3950 $ury=3.1200 $lvl=8
*|I (Mmp3:s Mmp3 s X 0 2.3305 3.1200) // $llx=2.3305 $lly=3.1200 $urx=2.3305 $ury=3.1200 $lvl=4
*|I (Mmp3:b Mmp3 b X 0 2.2550 3.1200) // $llx=2.2550 $lly=3.1200 $urx=2.2550 $ury=3.1200 $lvl=8
*|I (Mmp0:s Mmp0 s X 0 0.5505 3.3550) // $llx=0.5505 $lly=3.3550 $urx=0.5505 $ury=3.3550 $lvl=4
*|I (Mmp0:b Mmp0 b X 0 0.4750 3.3550) // $llx=0.4750 $lly=3.3550 $urx=0.4750 $ury=3.3550 $lvl=8
*|I (Mmp4:b Mmp4 b X 0 1.8250 3.1200) // $llx=1.8250 $lly=3.1200 $urx=1.8250 $ury=3.1200 $lvl=8
*|S (VDD!:1 0.7500 2.4950) // $llx=0.7500 $lly=2.4950 $urx=0.7500 $ury=2.4950 $lvl=2
*|S (VDD!:3 0.7500 3.1200) // $llx=0.7500 $lly=3.1200 $urx=0.7500 $ury=3.1200 $lvl=2
*|S (VDD!:4 0.7500 4.1400) // $llx=0.7500 $lly=4.1400 $urx=0.7500 $ury=4.1400 $lvl=2
*|S (VDD!:5 0.0000 4.1400) // $llx=0.0000 $lly=4.1400 $urx=0.0000 $ury=4.1400 $lvl=2
*|S (VDD!:6 2.3000 4.1400) // $llx=2.3000 $lly=4.1400 $urx=2.3000 $ury=4.1400 $lvl=2
*|S (VDD!:7 2.3000 4.1400) // $llx=2.3000 $lly=4.1400 $urx=2.3000 $ury=4.1400 $lvl=4
*|S (VDD!:9 2.5300 4.1400) // $llx=2.5300 $lly=4.1400 $urx=2.5300 $ury=4.1400 $lvl=2
*|S (VDD!:11 2.5300 3.0150) // $llx=2.5300 $lly=3.0150 $urx=2.5300 $ury=3.0150 $lvl=2
*|S (VDD!:12 2.5300 2.2850) // $llx=2.5300 $lly=2.2850 $urx=2.5300 $ury=2.2850 $lvl=2
*|S (VDD!:13 3.3900 4.1400) // $llx=3.3900 $lly=4.1400 $urx=3.3900 $ury=4.1400 $lvl=2
*|S (VDD!:15 3.3900 3.0150) // $llx=3.3900 $lly=3.0150 $urx=3.3900 $ury=3.0150 $lvl=2
*|S (VDD!:16 3.3900 2.2850) // $llx=3.3900 $lly=2.2850 $urx=3.3900 $ury=2.2850 $lvl=2
*|S (VDD!:17 4.2500 4.1400) // $llx=4.2500 $lly=4.1400 $urx=4.2500 $ury=4.1400 $lvl=2
*|S (VDD!:19 4.2500 3.0150) // $llx=4.2500 $lly=3.0150 $urx=4.2500 $ury=3.0150 $lvl=2
*|S (VDD!:20 4.2500 2.2850) // $llx=4.2500 $lly=2.2850 $urx=4.2500 $ury=2.2850 $lvl=2
*|S (VDD!:21 4.5995 4.1400) // $llx=4.5995 $lly=4.1400 $urx=4.5995 $ury=4.1400 $lvl=2
*|S (VDD!:22 4.6000 4.1400) // $llx=4.6000 $lly=4.1400 $urx=4.6000 $ury=4.1400 $lvl=1
*|S (VDD!:23 2.3000 4.1400) // $llx=2.3000 $lly=4.1400 $urx=2.3000 $ury=4.1400 $lvl=1
*|S (VDD!:24 0.0000 4.1400) // $llx=0.0000 $lly=4.1400 $urx=0.0000 $ury=4.1400 $lvl=1
CE1 Mmp1:s VSS! 1.93833e-18 $lvl=4
CE2 Mmp5@3:s VSS! 2.81989e-18 $lvl=4
CE3 Mmp5@1:s VSS! 1.89748e-19 $lvl=4
CE4 Mmp5:s VSS! 3.10001e-18 $lvl=4
CE5 VDD!:23 VSS! 1.38205e-17 $lvl=1
CE6 VDD!:22 VSS! 6.54348e-18 $lvl=1
CE7 VDD!:24 VSS! 6.5926e-18 $lvl=1
CE8 VDD!:1 VSS! 7.09513e-18 $lvl=2
CE9 VDD!:12 VSS! 6.40194e-18 $lvl=2
CE10 VDD!:16 VSS! 5.34684e-18 $lvl=2
CE11 VDD!:20 VSS! 1.08038e-17 $lvl=2
CE12 VDD!:21 VSS! 1.48242e-18 $lvl=2
CE13 VDD!:17 VSS! 3.0059e-18 $lvl=2
CE14 VDD!:13 VSS! 1.97761e-18 $lvl=2
CE15 VDD!:4 VSS! 5.05108e-18 $lvl=2
CE16 VDD!:5 VSS! 2.88805e-18 $lvl=2
CE17 VDD!:7 VSS! 2.90081e-18 $lvl=4
CE18 VDD!:6 VSS! 5.50409e-18 $lvl=2
CE19 VDD! VSS! 5.21938e-18 $lvl=1
CE20 VDD!:23 n6:3 1.5287e-18 $lvl1=1 $lvl2=2
CE21 VDD!:4 Mmp3:d 1.49019e-18 $lvl1=2 $lvl2=4
CE22 VDD!:12 Mmp3:d 1.27818e-18 $lvl1=2 $lvl2=4
CE23 VDD!:6 n6 1.04898e-18 $lvl1=2 $lvl2=2
CE24 VDD!:4 n6 5.62765e-18 $lvl1=2 $lvl2=2
CE25 VDD!:23 n6 3.11568e-18 $lvl1=1 $lvl2=2
CE26 VDD!:12 n6:3 4.22051e-17 $lvl1=2 $lvl2=2
CE27 VDD!:12 n6 6.78485e-18 $lvl1=2 $lvl2=2
CE28 VDD! n6:3 5.77298e-18 $lvl1=1 $lvl2=2
CE29 VDD!:4 n6:3 2.45289e-18 $lvl1=2 $lvl2=2
CE30 VDD!:12 n6:4 7.64496e-18 $lvl1=2 $lvl2=2
CE31 VDD!:4 Mmp1:d 1.58811e-18 $lvl1=2 $lvl2=4
CE32 VDD!:1 Mmp1:d 1.0416e-18 $lvl1=2 $lvl2=4
CE33 VDD!:6 n4 9.26054e-19 $lvl1=2 $lvl2=2
CE34 Mmp1:s n4:3 8.61881e-19 $lvl1=4 $lvl2=2
CE35 VDD!:1 n4:3 5.51592e-17 $lvl1=2 $lvl2=2
CE36 VDD!:4 n4:3 2.73597e-18 $lvl1=2 $lvl2=2
CE37 VDD!:23 n4:3 3.31548e-18 $lvl1=1 $lvl2=2
CE38 VDD!:23 n4 3.08642e-18 $lvl1=1 $lvl2=2
CE39 VDD!:4 n4 5.72981e-18 $lvl1=2 $lvl2=2
CE40 VDD!:1 n4 8.64745e-18 $lvl1=2 $lvl2=2
CE41 VDD!:1 n4:4 8.17478e-18 $lvl1=2 $lvl2=2
CE42 VDD! n4:3 6.79821e-18 $lvl1=1 $lvl2=2
CE43 VDD!:12 n0:58 9.80429e-18 $lvl1=2 $lvl2=1
CE44 VDD!:13 n0:37 8.80349e-18 $lvl1=2 $lvl2=3
CE45 VDD!:23 n0:42 8.19733e-18 $lvl1=1 $lvl2=2
CE46 VDD! n0:42 8.18053e-18 $lvl1=1 $lvl2=2
CE47 VDD!:4 n0:40 7.67164e-18 $lvl1=2 $lvl2=3
CE48 VDD! n0:62 7.54588e-18 $lvl1=1 $lvl2=1
CE49 VDD! n0:59 7.41918e-18 $lvl1=1 $lvl2=1
CE50 VDD!:13 n0:39 7.18607e-18 $lvl1=2 $lvl2=3
CE51 VDD!:12 n0:53 6.3802e-18 $lvl1=2 $lvl2=2
CE52 VDD!:17 n0:29 6.05755e-18 $lvl1=2 $lvl2=3
CE53 VDD! n0:63 5.68742e-18 $lvl1=1 $lvl2=1
CE54 VDD!:20 n0:53 5.24081e-18 $lvl1=2 $lvl2=2
CE55 VDD!:20 n0:32 4.83581e-18 $lvl1=2 $lvl2=3
CE56 VDD!:12 n0:54 4.2387e-18 $lvl1=2 $lvl2=2
CE57 VDD!:23 n0:58 2.9723e-18 $lvl1=1 $lvl2=1
CE58 VDD! n0:64 2.97181e-18 $lvl1=1 $lvl2=1
CE59 VDD!:1 n0:63 2.89917e-18 $lvl1=2 $lvl2=1
CE60 VDD!:13 n0:29 2.82257e-18 $lvl1=2 $lvl2=3
CE61 VDD! n0:53 2.60355e-18 $lvl1=1 $lvl2=2
CE62 VDD!:4 n0:39 2.39889e-18 $lvl1=2 $lvl2=3
CE63 VDD! n0:60 2.37442e-18 $lvl1=1 $lvl2=1
CE64 VDD!:6 n0:42 2.2964e-18 $lvl1=2 $lvl2=2
CE65 VDD!:12 n0:32 2.2743e-18 $lvl1=2 $lvl2=3
CE66 VDD!:4 Mmp2:d 1.97524e-18 $lvl1=2 $lvl2=4
CE67 VDD!:12 n0:42 1.62105e-18 $lvl1=2 $lvl2=2
CE68 VDD!:1 n0:42 1.5876e-18 $lvl1=2 $lvl2=2
CE69 VDD!:13 n0:40 1.45954e-18 $lvl1=2 $lvl2=3
CE70 VDD!:4 n0:62 1.43552e-18 $lvl1=2 $lvl2=1
CE71 Mmp5@3:s n0:32 1.33349e-18 $lvl1=4 $lvl2=3
CE72 VDD!:4 n0:63 1.33297e-18 $lvl1=2 $lvl2=1
CE73 Mmp5:s n0:32 1.22561e-18 $lvl1=4 $lvl2=3
CE74 Mmp5@1:s n0:32 1.15077e-18 $lvl1=4 $lvl2=3
CE75 VDD! n0:55 1.14163e-18 $lvl1=1 $lvl2=2
CE76 VDD!:17 n0:37 1.034e-18 $lvl1=2 $lvl2=3
CE77 VDD!:16 n0:39 2.5834e-16 $lvl1=2 $lvl2=3
CE78 VDD!:20 n0:29 2.53648e-16 $lvl1=2 $lvl2=3
CE79 VDD!:12 n0:62 2.0091e-17 $lvl1=2 $lvl2=1
CE80 VDD!:23 n0:63 1.99488e-17 $lvl1=1 $lvl2=1
CE81 VDD! n0:58 1.26385e-17 $lvl1=1 $lvl2=1
CE82 VDD!:16 n0:32 1.25674e-17 $lvl1=2 $lvl2=3
CE83 VDD!:12 n0:55 1.21197e-17 $lvl1=2 $lvl2=2
CE84 VDD!:12 n0:40 2.54702e-16 $lvl1=2 $lvl2=3
CE85 VDD! n0:32 1.13583e-17 $lvl1=1 $lvl2=3
CE86 VDD!:16 n0:53 1.31193e-17 $lvl1=2 $lvl2=2
CE87 VDD!:16 n0:37 2.52068e-16 $lvl1=2 $lvl2=3
CE88 VDD!:23 n0:62 1.85575e-17 $lvl1=1 $lvl2=1
CE89 VDD!:4 n0:42 2.26305e-17 $lvl1=2 $lvl2=2
CE90 VDD!:24 S0b:14 8.27849e-18 $lvl1=1 $lvl2=2
CE91 VDD!:24 S0b:30 8.18563e-18 $lvl1=1 $lvl2=1
CE92 VDD! S0b:13 6.03971e-18 $lvl1=1 $lvl2=3
CE93 VDD!:1 S0b:32 5.57206e-18 $lvl1=2 $lvl2=1
CE94 VDD!:23 S0b:14 5.17493e-18 $lvl1=1 $lvl2=2
CE95 VDD!:7 S0b:14 3.80721e-18 $lvl1=4 $lvl2=2
CE96 VDD! S0b:24 3.67823e-18 $lvl1=1 $lvl2=2
CE97 VDD!:12 S0b:25 3.55385e-18 $lvl1=2 $lvl2=2
CE98 VDD!:1 S0b:25 3.18135e-18 $lvl1=2 $lvl2=2
CE99 VDD!:23 S0b:32 3.09665e-18 $lvl1=1 $lvl2=1
CE100 VDD!:12 S0b:13 3.01383e-18 $lvl1=2 $lvl2=3
CE101 VDD! S0b:22 2.48262e-18 $lvl1=1 $lvl2=2
CE102 VDD! S0b:19 2.37156e-18 $lvl1=1 $lvl2=2
CE103 VDD!:1 S0b:24 2.10882e-18 $lvl1=2 $lvl2=2
CE104 VDD!:12 S0b:11 1.90629e-18 $lvl1=2 $lvl2=3
CE105 VDD! S0b:25 1.87028e-18 $lvl1=1 $lvl2=2
CE106 VDD!:6 S0b:14 1.82745e-18 $lvl1=2 $lvl2=2
CE107 VDD!:1 Mmp0:d 1.60044e-18 $lvl1=2 $lvl2=4
CE108 Mmp1:s S0b:23 1.49218e-18 $lvl1=4 $lvl2=2
CE109 VDD!:24 S0b:32 1.28759e-18 $lvl1=1 $lvl2=1
CE110 VDD!:5 S0b:30 1.25964e-18 $lvl1=2 $lvl2=1
CE111 VDD!:1 S0b:17 1.25111e-18 $lvl1=2 $lvl2=2
CE112 VDD!:4 Mmp0:d 1.14523e-18 $lvl1=2 $lvl2=4
CE113 VDD!:4 S0b:30 1.0171e-18 $lvl1=2 $lvl2=1
CE114 VDD!:23 S0b:34 1.00965e-18 $lvl1=1 $lvl2=1
CE115 Mmp1:s S0b:14 7.27931e-19 $lvl1=4 $lvl2=2
CE116 VDD!:1 S0b:14 5.27285e-17 $lvl1=2 $lvl2=2
CE117 VDD! S0b:32 3.38356e-17 $lvl1=1 $lvl2=1
CE118 VDD! S0b:30 2.36906e-17 $lvl1=1 $lvl2=1
CE119 VDD! S0b:34 3.01854e-17 $lvl1=1 $lvl2=1
CE120 VDD!:23 S0b:30 1.29434e-17 $lvl1=1 $lvl2=1
CE121 VDD!:1 S0b:30 1.25311e-17 $lvl1=2 $lvl2=1
CE122 VDD!:1 S0b:23 2.1292e-17 $lvl1=2 $lvl2=2
CE123 VDD!:4 S0b:14 1.31463e-17 $lvl1=2 $lvl2=2
CE124 VDD! S0b:23 1.25407e-17 $lvl1=1 $lvl2=2
CE125 VDD! S0b:18 1.19989e-17 $lvl1=1 $lvl2=2
CE126 VDD!:5 S0b:14 1.33212e-17 $lvl1=2 $lvl2=2
CE127 VDD! S0b:14 4.23428e-17 $lvl1=1 $lvl2=2
CE128 VDD!:4 S0b:11 1.11582e-17 $lvl1=2 $lvl2=3
CE129 VDD! VSS!:21 2.46843e-18 $lvl1=1 $lvl2=2
CE130 VDD!:23 VSS!:23 1.93733e-18 $lvl1=1 $lvl2=1
CE131 VDD!:20 VSS!:1 1.31506e-18 $lvl1=2 $lvl2=2
CE132 VDD! VSS!:1 1.6458e-17 $lvl1=1 $lvl2=2
CE133 VDD! VSS!:23 1.34785e-16 $lvl1=1 $lvl2=1
CE134 VDD! VSS!:22 3.15534e-17 $lvl1=1 $lvl2=1
CE135 VDD! VSS!:24 3.32893e-17 $lvl1=1 $lvl2=1
CE136 VDD! VSS!:12 1.15294e-17 $lvl1=1 $lvl2=2
CE137 VDD! VSS!:4 2.2719e-17 $lvl1=1 $lvl2=2
CE138 VDD! VSS!:5 2.48587e-17 $lvl1=1 $lvl2=2
CE139 VDD! VSS!:10 7.1917e-17 $lvl1=1 $lvl2=2
CE140 VDD! VSS!:11 1.80438e-17 $lvl1=1 $lvl2=2
CE141 VDD! VSS!:7 1.19702e-17 $lvl1=1 $lvl2=2
ReE86 VDD!:22 VDD! 0.682813 $metal1  $L=2.185 $W=0.400000 $SI_W=0.4 $TYPE=10 $DIR=0 $LLX=2.415000 $LLY=3.940000 $URX=4.600000 $URY=4.340000 $lvl=1
ReE87 VDD! VDD!:23 0.035937 $metal1  $L=0.115 $W=0.400000 $SI_W=0.4 $TYPE=10 $DIR=0 $LLX=2.300000 $LLY=3.940000 $URX=2.415000 $URY=4.340000 $lvl=1
ReE88 VDD!:23 VDD!:24 0.718750 $metal1  $L=2.3 $W=0.400000 $SI_W=0.4 $TYPE=10 $DIR=0 $LLX=0.000000 $LLY=3.940000 $URX=2.300000 $URY=4.340000 $lvl=1
RfE89 VDD!:1 VDD!:3 47.058826 $li  $L=0.625 $W=0.170000 $SI_W=0.17 $TYPE=10 $DIR=1 $LLX=0.665000 $LLY=2.495000 $URX=0.835000 $URY=3.120000 $lvl=2
RfE90 VDD!:3 VDD!:4 73.801033 $li  $L=1.02025 $W=0.170000 $SI_W=0.17 $TYPE=10 $DIR=1 $LLX=0.665000 $LLY=3.120000 $URX=0.835000 $URY=4.140000 $lvl=2
RfE91 VDD!:4 VDD!:5 38.412800 $li  $L=0.75025 $W=0.250000 $SI_W=0.25 $TYPE=10 $DIR=0 $LLX=0.000000 $LLY=4.015000 $URX=0.750000 $URY=4.265000 $lvl=2
RfE92 VDD!:4 VDD!:6 79.347206 $li  $L=1.54975 $W=0.250000 $SI_W=0.25 $TYPE=10 $DIR=0 $LLX=0.750000 $LLY=4.015000 $URX=2.300000 $URY=4.265000 $lvl=2
RfE93 VDD!:6 VDD!:9 11.788800 $li  $L=0.23025 $W=0.250000 $SI_W=0.25 $TYPE=10 $DIR=0 $LLX=2.300000 $LLY=4.015000 $URX=2.530000 $URY=4.265000 $lvl=2
RfE94 VDD!:9 VDD!:11 81.706917 $li  $L=1.12525 $W=0.170000 $SI_W=0.17 $TYPE=10 $DIR=1 $LLX=2.445000 $LLY=3.015000 $URX=2.615000 $URY=4.140000 $lvl=2
RfE95 VDD!:11 VDD!:12 54.964703 $li  $L=0.73 $W=0.170000 $SI_W=0.17 $TYPE=10 $DIR=1 $LLX=2.445000 $LLY=2.285000 $URX=2.615000 $URY=3.015000 $lvl=2
RfE96 VDD!:9 VDD!:13 44.031998 $li  $L=0.86 $W=0.250000 $SI_W=0.25 $TYPE=10 $DIR=0 $LLX=2.530000 $LLY=4.015000 $URX=3.390000 $URY=4.265000 $lvl=2
RfE97 VDD!:13 VDD!:15 81.706917 $li  $L=1.12525 $W=0.170000 $SI_W=0.17 $TYPE=10 $DIR=1 $LLX=3.305000 $LLY=3.015000 $URX=3.475000 $URY=4.140000 $lvl=2
RfE98 VDD!:15 VDD!:16 54.964703 $li  $L=0.73 $W=0.170000 $SI_W=0.17 $TYPE=10 $DIR=1 $LLX=3.305000 $LLY=2.285000 $URX=3.475000 $URY=3.015000 $lvl=2
RfE99 VDD!:13 VDD!:17 44.031998 $li  $L=0.86 $W=0.250000 $SI_W=0.25 $TYPE=10 $DIR=0 $LLX=3.390000 $LLY=4.015000 $URX=4.250000 $URY=4.265000 $lvl=2
RfE100 VDD!:17 VDD!:19 81.706917 $li  $L=1.12525 $W=0.170000 $SI_W=0.17 $TYPE=10 $DIR=1 $LLX=4.165000 $LLY=3.015000 $URX=4.335000 $URY=4.140000 $lvl=2
RfE101 VDD!:19 VDD!:20 54.964703 $li  $L=0.73 $W=0.170000 $SI_W=0.17 $TYPE=10 $DIR=1 $LLX=4.165000 $LLY=2.285000 $URX=4.335000 $URY=3.015000 $lvl=2
RfE102 VDD!:17 VDD!:21 17.881599 $li  $L=0.34925 $W=0.250000 $SI_W=0.25 $TYPE=10 $DIR=0 $LLX=4.250000 $LLY=4.015000 $URX=4.599000 $URY=4.265000 $lvl=2
Rh_1_E103 VDD!:7 VDD!:6 1.666667 $licon_diff  $A=0.2601 $VC=0 $SAVL=0 $SAVC=0 $SI_A=0.2601 $COVER_DIR=0 $LLX=0.000000 $LLY=0.000000 $URX=-0.260100 $URY=-9.000000 $lvl=5
Rh_2_E104 Mmp1:s VDD!:3 5.000000 $licon_diff  $A=0.0867 $VC=0 $SAVL=0 $SAVC=0 $SI_A=0.0867 $COVER_DIR=0 $LLX=0.000000 $LLY=0.000000 $URX=-0.086700 $URY=-3.000000 $lvl=5
Rh_2_E105 Mmp5:s VDD!:11 3.750000 $licon_diff  $A=0.1156 $VC=0 $SAVL=0 $SAVC=0 $SI_A=0.1156 $COVER_DIR=0 $LLX=0.000000 $LLY=0.000000 $URX=-0.115600 $URY=-4.000000 $lvl=5
Rh_2_E106 Mmp5@1:s VDD!:15 3.750000 $licon_diff  $A=0.1156 $VC=0 $SAVL=0 $SAVC=0 $SI_A=0.1156 $COVER_DIR=0 $LLX=0.000000 $LLY=0.000000 $URX=-0.115600 $URY=-4.000000 $lvl=5
Rh_2_E107 Mmp5@3:s VDD!:19 3.750000 $licon_diff  $A=0.1156 $VC=0 $SAVL=0 $SAVC=0 $SI_A=0.1156 $COVER_DIR=0 $LLX=0.000000 $LLY=0.000000 $URX=-0.115600 $URY=-4.000000 $lvl=5
RjE108 VDD!:6 VDD!:23 16.888889 $mcon  $A=0.2601 $VC=0 $SAVL=0 $SAVC=0 $SI_A=0.2601 $COVER_DIR=0 $LLX=0.000000 $LLY=0.000000 $URX=-0.260100 $URY=-9.000000 $lvl=6
RmwE109 Mmp5:b VDD! 0.001000 $FOX $W=1000000 $SI_W=1000000 $TYPE=1 $DIR=0
RmwE110 Mmp5@1:b VDD! 0.001000 $FOX $W=1000000 $SI_W=1000000 $TYPE=1 $DIR=0
RmwE111 Mmp5@2:s Mmp5@1:s 0.001000 $diff $W=1000000 $SI_W=1000000 $TYPE=1 $DIR=0
RmwE112 Mmp5@2:b VDD! 0.001000 $FOX $W=1000000 $SI_W=1000000 $TYPE=1 $DIR=0
RmwE113 Mmp5@3:b VDD! 0.001000 $FOX $W=1000000 $SI_W=1000000 $TYPE=1 $DIR=0