*
*|DSPF 1.5
*
*|DATE "Wed Jan  8 21:22:32 2025"
*|VENDOR "Cadence Design Systems"
*|PROGRAM "Cadence Quantus Extraction"
*|VERSION "22.1.0-p089 Linux 64 bit - (Thu Jan 19 11:47:08 PST 2023)"
*|DESIGN MX2X1_HS
*|DIVIDER /
*|DELIMITER :
*|DeviceFingerDelim "@"
*|BUSBIT []
*|GLOBAL_TEMPERATURE 25
*|OPERATING_TEMPERATURE 25

** *VIA_COVERAGE_CODES
** *index FF FS FP FU SF SS SP SU PF PS PP PU UF US UP UU X_by_Y
** * "FF" stands for Full landing and Full coverage
** *0 0 0 0 0 0 0 0 0 0 0 0 0 0 0 0 0
** *1 0 0 0 0 0 0 0 0 0 0 0 0 0 0 0 1 1x1
** *2 0 0 0 0 0 0 0 0 0 0 0 0 0 0 1 0 1x1
** *3 0 0 0 0 0 0 0 0 0 0 0 0 0 1 0 0 1x1
** *4 0 0 0 0 0 0 0 0 0 0 0 0 1 0 0 0 1x1
** *5 0 0 0 0 0 0 0 0 0 0 0 1 0 0 0 0 1x1
** *6 0 0 0 0 0 0 0 0 0 0 1 0 0 0 0 0 1x1
** *7 0 0 0 0 0 0 0 0 0 1 0 0 0 0 0 0 1x1
** *8 0 0 0 0 0 0 0 0 1 0 0 0 0 0 0 0 1x1
** *9 0 0 0 0 0 0 0 1 0 0 0 0 0 0 0 0 1x1
** *10 0 0 0 0 0 0 1 0 0 0 0 0 0 0 0 0 1x1
** *11 0 0 0 0 0 1 0 0 0 0 0 0 0 0 0 0 1x1
** *12 0 0 0 0 1 0 0 0 0 0 0 0 0 0 0 0 1x1
** *13 0 0 0 1 0 0 0 0 0 0 0 0 0 0 0 0 1x1
** *14 0 0 1 0 0 0 0 0 0 0 0 0 0 0 0 0 1x1
** *15 0 1 0 0 0 0 0 0 0 0 0 0 0 0 0 0 1x1
** *16 1 0 0 0 0 0 0 0 0 0 0 0 0 0 0 0 1x1

** *RESISTOR_TYPES
** *1 SHORTING_ELEMENT
** *2 PRES_NG
** *3 PRES_PG
** *4 PRES_NF
** *5 PRES_PF
** *6 TCN_NDIFF
** *7 TCN_PDIFF
** *8 TCN_NFIELD
** *9 TCN_PFIELD
** *10 QUALITY_EXTRACTED
** *11 GCNLAND
** *12 TCNLAND
** *13 DUMMY
** *14 RSD
** *15 BRIDGE

** *RESISTOR_CURRENT_DIRECTION
** *0 HORIZONTAL
** *1 VERTICAL
** *2 45 DEGREE

** QRC_TECH_DIR /vols/wfo_devel/projects/reference_SKY130/tech/sky130_release_0.0.4/quantus/extraction/typical 
** HIERARCHICAL_SPLIT_PINS_DELIMITER '%'
** caps2d version: 10
*
.SUBCKT  MX2X1_HS A B S0 Y
*
*Net Section
*
*|GROUND_NET VSS!
*
*LAYER_MAP
*0 none
*1 metal1
*2 li
*3 poly
*4 diff
*5 licon_diff
*6 mcon
*7 licon
*8 FOX

*|NET VSS! 1.88605e-15
*|P (VSS! X 0 1.3500 0.0050) // $llx=1.3500 $lly=0.0050 $urx=1.3500 $ury=0.0050 $lvl=1
*|I (Mmn1:s Mmn1 s X 0 0.8295 0.6075) // $llx=0.8295 $lly=0.6075 $urx=0.8295 $ury=0.6075 $lvl=4
*|I (Mmn1:b Mmn1 b X 0 0.9050 0.6075) // $llx=0.9050 $lly=0.6075 $urx=0.9050 $ury=0.6075 $lvl=8
*|I (Mmn4:b Mmn4 b X 0 1.7650 0.6075) // $llx=1.7650 $lly=0.6075 $urx=1.7650 $ury=0.6075 $lvl=8
*|I (Mmn5:s Mmn5 s X 0 2.6095 0.7750) // $llx=2.6095 $lly=0.7750 $urx=2.6095 $ury=0.7750 $lvl=4
*|I (Mmn5:b Mmn5 b X 0 2.6850 0.7750) // $llx=2.6850 $lly=0.7750 $urx=2.6850 $ury=0.7750 $lvl=8
*|I (Mmn3:s Mmn3 s X 0 2.2705 0.6075) // $llx=2.2705 $lly=0.6075 $urx=2.2705 $ury=0.6075 $lvl=4
*|I (Mmn3:b Mmn3 b X 0 2.1950 0.6075) // $llx=2.1950 $lly=0.6075 $urx=2.1950 $ury=0.6075 $lvl=8
*|I (Mmn0:s Mmn0 s X 0 0.5505 0.6075) // $llx=0.5505 $lly=0.6075 $urx=0.5505 $ury=0.6075 $lvl=4
*|I (Mmn0:b Mmn0 b X 0 0.4750 0.6075) // $llx=0.4750 $lly=0.6075 $urx=0.4750 $ury=0.6075 $lvl=8
*|I (Mmn2:b Mmn2 b X 0 1.3350 0.6075) // $llx=1.3350 $lly=0.6075 $urx=1.3350 $ury=0.6075 $lvl=8
*|S (VSS!:1 2.4700 1.1550) // $llx=2.4700 $lly=1.1550 $urx=2.4700 $ury=1.1550 $lvl=2
*|S (VSS!:3 2.4700 0.7750) // $llx=2.4700 $lly=0.7750 $urx=2.4700 $ury=0.7750 $lvl=2
*|S (VSS!:4 2.4700 0.0000) // $llx=2.4700 $lly=0.0000 $urx=2.4700 $ury=0.0000 $lvl=2
*|S (VSS!:5 1.8400 0.0000) // $llx=1.8400 $lly=0.0000 $urx=1.8400 $ury=0.0000 $lvl=2
*|S (VSS!:6 1.8400 0.0000) // $llx=1.8400 $lly=0.0000 $urx=1.8400 $ury=0.0000 $lvl=4
*|S (VSS!:8 0.6900 0.0000) // $llx=0.6900 $lly=0.0000 $urx=0.6900 $ury=0.0000 $lvl=2
*|S (VSS!:9 0.0000 0.0000) // $llx=0.0000 $lly=0.0000 $urx=0.0000 $ury=0.0000 $lvl=2
*|S (VSS!:10 3.6795 0.0000) // $llx=3.6795 $lly=0.0000 $urx=3.6795 $ury=0.0000 $lvl=2
*|S (VSS!:12 0.6900 0.6050) // $llx=0.6900 $lly=0.6050 $urx=0.6900 $ury=0.6050 $lvl=2
*|S (VSS!:13 0.6900 0.8200) // $llx=0.6900 $lly=0.8200 $urx=0.6900 $ury=0.8200 $lvl=2
*|S (VSS!:14 3.6800 0.0000) // $llx=3.6800 $lly=0.0000 $urx=3.6800 $ury=0.0000 $lvl=1
*|S (VSS!:15 1.8400 0.0000) // $llx=1.8400 $lly=0.0000 $urx=1.8400 $ury=0.0000 $lvl=1
*|S (VSS!:16 0.0000 0.0000) // $llx=0.0000 $lly=0.0000 $urx=0.0000 $ury=0.0000 $lvl=1
ReF85 VSS!:14 VSS!:15 0.575000 $metal1  $L=1.84 $W=0.400000 $SI_W=0.4 $TYPE=10 $DIR=0 $LLX=1.840000 $LLY=-0.199500 $URX=3.680000 $URY=0.200000 $lvl=1
ReF86 VSS!:15 VSS! 0.153125 $metal1  $L=0.49 $W=0.400000 $SI_W=0.4 $TYPE=10 $DIR=0 $LLX=1.350000 $LLY=-0.199500 $URX=1.840000 $URY=0.200000 $lvl=1
ReF87 VSS! VSS!:16 0.421875 $metal1  $L=1.35 $W=0.400000 $SI_W=0.4 $TYPE=10 $DIR=0 $LLX=0.000000 $LLY=-0.199500 $URX=1.350000 $URY=0.200000 $lvl=1
RfF88 VSS!:1 VSS!:3 28.611765 $li  $L=0.38 $W=0.170000 $SI_W=0.17 $TYPE=10 $DIR=1 $LLX=2.385000 $LLY=0.775000 $URX=2.555000 $URY=1.155000 $lvl=2
RfF89 VSS!:3 VSS!:4 55.328377 $li  $L=0.77475 $W=0.170000 $SI_W=0.17 $TYPE=10 $DIR=1 $LLX=2.385000 $LLY=0.000000 $URX=2.555000 $URY=0.775000 $lvl=2
RfF90 VSS!:4 VSS!:5 32.268803 $li  $L=0.63025 $W=0.250000 $SI_W=0.25 $TYPE=10 $DIR=0 $LLX=1.840000 $LLY=-0.124500 $URX=2.470000 $URY=0.125000 $lvl=2
RfF91 VSS!:5 VSS!:8 58.867199 $li  $L=1.14975 $W=0.250000 $SI_W=0.25 $TYPE=10 $DIR=0 $LLX=0.690000 $LLY=-0.124500 $URX=1.840000 $URY=0.125000 $lvl=2
RfF92 VSS!:8 VSS!:9 35.340801 $li  $L=0.69025 $W=0.250000 $SI_W=0.25 $TYPE=10 $DIR=0 $LLX=0.000000 $LLY=-0.124500 $URX=0.690000 $URY=0.125000 $lvl=2
RfF93 VSS!:4 VSS!:10 61.913601 $li  $L=1.20925 $W=0.250000 $SI_W=0.25 $TYPE=10 $DIR=0 $LLX=2.470000 $LLY=-0.124500 $URX=3.679000 $URY=0.125000 $lvl=2
RfF94 VSS!:8 VSS!:12 42.528378 $li  $L=0.60475 $W=0.170000 $SI_W=0.17 $TYPE=10 $DIR=1 $LLX=0.605000 $LLY=0.000000 $URX=0.775000 $URY=0.605000 $lvl=2
RfF95 VSS!:12 VSS!:13 16.188236 $li  $L=0.215 $W=0.170000 $SI_W=0.17 $TYPE=10 $DIR=1 $LLX=0.605000 $LLY=0.605000 $URX=0.775000 $URY=0.820000 $lvl=2
RhF96 Mmn5:s VSS!:3 7.500000 $licon_diff  $A=0.0578 $VC=0 $SAVL=0 $SAVC=0 $SI_A=0.0578 $COVER_DIR=0 $LLX=0.000000 $LLY=0.000000 $URX=-0.057800 $URY=-2.000000 $lvl=5
RhF97 Mmn1:s VSS!:12 15.000000 $licon_diff  $L=0.17 $W=0.17 $A=0.0289 $VC=0 $SAVL=0 $SAVC=0 $SI_A=0.0289 $COVER_DIR=0 $LLX=0.000000 $LLY=0.000000 $URX=0.170000 $URY=0.170000 $lvl=5
Rh_3_F98 VSS!:6 VSS!:5 2.142857 $licon_diff  $A=0.2023 $VC=0 $SAVL=0 $SAVC=0 $SI_A=0.2023 $COVER_DIR=0 $LLX=0.000000 $LLY=0.000000 $URX=-0.202300 $URY=-7.000000 $lvl=5
RjF99 VSS!:5 VSS!:15 21.714285 $mcon  $A=0.2023 $VC=0 $SAVL=0 $SAVC=0 $SI_A=0.2023 $COVER_DIR=0 $LLX=0.000000 $LLY=0.000000 $URX=-0.202300 $URY=-7.000000 $lvl=6
RmwF100 Mmn1:b VSS! 0.001000 $FOX $W=1000000 $SI_W=1000000 $TYPE=1 $DIR=0
RmwF101 Mmn4:b VSS! 0.001000 $FOX $W=1000000 $SI_W=1000000 $TYPE=1 $DIR=0
RmwF102 Mmn5:b VSS! 0.001000 $FOX $W=1000000 $SI_W=1000000 $TYPE=1 $DIR=0
RmwF103 Mmn3:s Mmn5:s 0.001000 $diff $W=1000000 $SI_W=1000000 $TYPE=1 $DIR=0
RmwF104 Mmn3:b VSS! 0.001000 $FOX $W=1000000 $SI_W=1000000 $TYPE=1 $DIR=0
RmwF105 Mmn0:s Mmn1:s 0.001000 $diff $W=1000000 $SI_W=1000000 $TYPE=1 $DIR=0
RmwF106 Mmn0:b VSS! 0.001000 $FOX $W=1000000 $SI_W=1000000 $TYPE=1 $DIR=0
RmwF107 Mmn2:b VSS! 0.001000 $FOX $W=1000000 $SI_W=1000000 $TYPE=1 $DIR=0
*
*|NET B 7.20083e-16
*|P (B X 0 2.2900 1.5250) // $llx=2.2900 $lly=1.5250 $urx=2.2900 $ury=1.5250 $lvl=1
*|I (Mmp3:g Mmp3 g X 0 2.1950 3.3550) // $llx=2.1950 $lly=3.3550 $urx=2.1950 $ury=3.3550 $lvl=3
*|I (Mmn3:g Mmn3 g X 0 2.1950 0.6075) // $llx=2.1950 $lly=0.6075 $urx=2.1950 $ury=0.6075 $lvl=3
*|S (B:8 2.1950 3.8950) // $llx=2.1950 $lly=3.8950 $urx=2.1950 $ury=3.8950 $lvl=3
*|S (B:9 2.1750 1.5850) // $llx=2.1750 $lly=1.5850 $urx=2.1750 $ury=1.5850 $lvl=3
*|S (B:10 2.1750 1.4200) // $llx=2.1750 $lly=1.4200 $urx=2.1750 $ury=1.4200 $lvl=3
*|S (B:11 2.1950 0.2450) // $llx=2.1950 $lly=0.2450 $urx=2.1950 $ury=0.2450 $lvl=3
*|S (B:12 2.3000 1.5850) // $llx=2.3000 $lly=1.5850 $urx=2.3000 $ury=1.5850 $lvl=2
*|S (B:13 2.1750 1.5850) // $llx=2.1750 $lly=1.5850 $urx=2.1750 $ury=1.5850 $lvl=2
*|S (B:14 2.3000 2.1150) // $llx=2.3000 $lly=2.1150 $urx=2.3000 $ury=2.1150 $lvl=1
*|S (B:15 2.3000 1.5850) // $llx=2.3000 $lly=1.5850 $urx=2.3000 $ury=1.5850 $lvl=1
*|S (B:16 2.3000 0.8750) // $llx=2.3000 $lly=0.8750 $urx=2.3000 $ury=0.8750 $lvl=1
CB1 Mmn3:g VSS! 7.55466e-19 $lvl=3
CB2 B:14 VSS! 4.84288e-18 $lvl=1
CB3 B:16 VSS! 6.40671e-18 $lvl=1
CB4 B:8 VSS! 2.99645e-18 $lvl=3
CB5 B:13 VSS! 4.55488e-18 $lvl=2
CB6 B:12 VSS! 1.75607e-18 $lvl=2
CB7 B:9 VSS! 2.27125e-17 $lvl=3
CB8 B VSS! 3.87052e-18 $lvl=1
CB9 B:8 n6 1.92639e-18 $lvl1=3 $lvl2=2
CB10 B:8 n6:3 6.95378e-17 $lvl1=3 $lvl2=2
CB11 Mmn3:g n5 6.42784e-19 $lvl1=3 $lvl2=2
CB12 B:16 n5:4 5.26151e-19 $lvl1=1 $lvl2=2
CB13 Mmn3:g n5:4 4.98767e-19 $lvl1=3 $lvl2=2
CB14 B:9 n5:3 3.58758e-19 $lvl1=3 $lvl2=2
CB15 B:9 n5 3.10698e-19 $lvl1=3 $lvl2=2
CB16 B:16 n5:3 3.37923e-18 $lvl1=1 $lvl2=2
CB17 B:16 n5 2.38454e-18 $lvl1=1 $lvl2=2
CB18 Mmn3:g n5:3 6.60547e-17 $lvl1=3 $lvl2=2
CB19 B:16 n0:30 3.46556e-18 $lvl1=1 $lvl2=1
CB20 B:9 n0:22 2.37419e-18 $lvl1=3 $lvl2=2
CB21 B:14 n0:31 2.26078e-18 $lvl1=1 $lvl2=1
CB22 B:8 n0:12 1.78856e-18 $lvl1=3 $lvl2=2
CB23 B:13 n0:26 1.59784e-18 $lvl1=2 $lvl2=1
CB24 B:9 n0 1.5668e-18 $lvl1=3 $lvl2=3
CB25 B n0:22 1.48738e-18 $lvl1=1 $lvl2=2
CB26 B:12 n0:26 1.2367e-18 $lvl1=2 $lvl2=1
CB27 B:12 n0:30 1.08358e-18 $lvl1=2 $lvl2=1
CB28 B:13 n0:31 9.25721e-19 $lvl1=2 $lvl2=1
CB29 B n0:28 7.86223e-19 $lvl1=1 $lvl2=1
CB30 B:16 n0:22 7.22187e-19 $lvl1=1 $lvl2=2
CB31 B:16 n0:18 7.09987e-19 $lvl1=1 $lvl2=2
CB32 B:13 n0:30 6.82628e-19 $lvl1=2 $lvl2=1
CB33 B:12 n0:31 6.81314e-19 $lvl1=2 $lvl2=1
CB34 B:16 n0:28 6.78648e-19 $lvl1=1 $lvl2=1
CB35 B:12 n0:9 6.49988e-19 $lvl1=2 $lvl2=3
CB36 B:13 n0 5.84769e-19 $lvl1=2 $lvl2=3
CB37 B:14 n0:9 5.47732e-19 $lvl1=1 $lvl2=3
CB38 B:9 n0:8 5.24458e-19 $lvl1=3 $lvl2=3
CB39 B:9 n0:26 5.13952e-19 $lvl1=3 $lvl2=1
CB40 B:14 n0:24 4.27951e-19 $lvl1=1 $lvl2=1
CB41 B:16 n0:17 4.02575e-19 $lvl1=1 $lvl2=2
CB42 B:12 n0:28 3.48939e-19 $lvl1=2 $lvl2=1
CB43 Mmn3:g n0:17 2.86547e-19 $lvl1=3 $lvl2=2
CB44 B n0:31 3.94194e-18 $lvl1=1 $lvl2=1
CB45 B n0:30 8.345e-18 $lvl1=1 $lvl2=1
CB46 B n0:26 6.34897e-18 $lvl1=1 $lvl2=1
CB47 B:16 n0:26 5.21171e-18 $lvl1=1 $lvl2=1
CB48 B:14 n0:30 3.40608e-17 $lvl1=1 $lvl2=1
CB49 B:14 n0:28 3.58594e-17 $lvl1=1 $lvl2=1
CB50 B:12 n0:22 4.44786e-18 $lvl1=2 $lvl2=2
CB51 B:14 n0:26 2.59405e-17 $lvl1=1 $lvl2=1
CB52 B:14 n0:22 6.66859e-18 $lvl1=1 $lvl2=2
CB53 B:13 n0:9 3.84306e-18 $lvl1=2 $lvl2=3
CB54 B:9 n0:9 5.16904e-18 $lvl1=3 $lvl2=3
CB55 B:13 n0:22 8.09016e-18 $lvl1=2 $lvl2=2
CB56 B:16 n0:31 2.24555e-17 $lvl1=1 $lvl2=1
CB57 B:12 VSS!:3 2.98071e-18 $lvl1=2 $lvl2=2
CB58 B:9 Mmn5:s 1.51718e-18 $lvl1=3 $lvl2=4
CB59 B:16 VSS!:8 9.00487e-19 $lvl1=1 $lvl2=2
CB60 B VSS!:15 7.60961e-19 $lvl1=1 $lvl2=1
CB61 B:14 VSS!:15 7.06526e-19 $lvl1=1 $lvl2=1
CB62 B:16 VSS!:5 6.35481e-19 $lvl1=1 $lvl2=2
CB63 B:9 VSS!:3 6.37448e-18 $lvl1=3 $lvl2=2
CB64 B:13 VSS!:3 5.90621e-18 $lvl1=2 $lvl2=2
CB65 Mmn3:g VSS!:8 8.98507e-18 $lvl1=3 $lvl2=2
CB66 B:16 VSS!:3 1.6689e-17 $lvl1=1 $lvl2=2
CB67 Mmn3:g VSS!:3 3.98867e-17 $lvl1=3 $lvl2=2
CB68 B:16 VSS!:15 1.2292e-17 $lvl1=1 $lvl2=1
CB69 B:14 VDD! 3.5971e-18 $lvl1=1 $lvl2=1
CB70 B:14 VDD!:11 3.2859e-18 $lvl1=1 $lvl2=2
CB71 B:9 VDD! 2.75942e-18 $lvl1=3 $lvl2=1
CB72 B:9 VDD!:11 2.46291e-18 $lvl1=3 $lvl2=2
CB73 B VDD! 2.43959e-18 $lvl1=1 $lvl2=1
CB74 B:13 VDD!:11 1.1407e-18 $lvl1=2 $lvl2=2
CB75 B:12 VDD!:11 7.95028e-19 $lvl1=2 $lvl2=2
CB76 B:9 Mmp3:s 6.82046e-19 $lvl1=3 $lvl2=4
CB77 B:13 VDD! 6.51088e-19 $lvl1=2 $lvl2=1
CB78 B:16 VDD! 7.29446e-18 $lvl1=1 $lvl2=1
CB79 B:8 VDD!:4 1.07652e-17 $lvl1=3 $lvl2=2
CB80 B:8 VDD!:11 7.21292e-17 $lvl1=3 $lvl2=2
CB81 B Y:11 3.26165e-18 $lvl1=1 $lvl2=1
CB82 B Y 2.58348e-18 $lvl1=1 $lvl2=1
CB83 B:16 Y:6 2.26777e-18 $lvl1=1 $lvl2=2
CB84 B:14 Y 2.17369e-18 $lvl1=1 $lvl2=1
CB85 B:13 Y:6 1.88889e-18 $lvl1=2 $lvl2=2
CB86 B:14 Y:11 1.31954e-18 $lvl1=1 $lvl2=1
CB87 B:14 Y:14 1.24768e-18 $lvl1=1 $lvl2=1
CB88 B:16 Y:9 1.12105e-18 $lvl1=1 $lvl2=2
CB89 B:9 Y:6 1.07952e-18 $lvl1=3 $lvl2=2
CB90 B:13 Y 9.51459e-19 $lvl1=2 $lvl2=1
CB91 B:13 Y:11 8.6991e-19 $lvl1=2 $lvl2=1
CB92 B:16 Y:14 8.13322e-19 $lvl1=1 $lvl2=1
CB93 B:12 Y:6 6.8111e-19 $lvl1=2 $lvl2=2
CB94 B:12 Y:11 5.53872e-19 $lvl1=2 $lvl2=1
CB95 B Y:6 4.64161e-19 $lvl1=1 $lvl2=2
CB96 B:12 Y 4.53028e-19 $lvl1=2 $lvl2=1
CB97 B Y:14 4.5037e-19 $lvl1=1 $lvl2=1
CB98 B:16 Y 4.20806e-18 $lvl1=1 $lvl2=1
CB99 B:16 Y:11 3.17506e-17 $lvl1=1 $lvl2=1
CB100 B:12 S0:32 3.04769e-18 $lvl1=2 $lvl2=2
CB101 B:13 S0:30 3.01819e-18 $lvl1=2 $lvl2=2
CB102 Mmn3:g S0:25 1.98003e-18 $lvl1=3 $lvl2=3
CB103 B:14 S0:32 1.80085e-18 $lvl1=1 $lvl2=2
CB104 B S0:32 1.63501e-18 $lvl1=1 $lvl2=2
CB105 B:12 S0:30 1.30588e-18 $lvl1=2 $lvl2=2
CB106 B:8 S0:30 9.99452e-19 $lvl1=3 $lvl2=2
CB107 B:13 S0:25 8.88565e-19 $lvl1=2 $lvl2=3
CB108 B:16 S0:25 4.79808e-19 $lvl1=1 $lvl2=3
CB109 Mmn3:g S0:32 3.5938e-19 $lvl1=3 $lvl2=2
CB110 B:9 S0:32 8.02675e-18 $lvl1=3 $lvl2=2
CB111 B:9 S0:30 3.75775e-18 $lvl1=3 $lvl2=2
CB112 B:9 S0:25 4.91306e-18 $lvl1=3 $lvl2=3
CB113 B:14 S0:30 3.70999e-18 $lvl1=1 $lvl2=2
CB114 B:13 S0:32 2.28456e-17 $lvl1=2 $lvl2=2
CB115 B:16 S0:32 7.30519e-18 $lvl1=1 $lvl2=2
ReB12 B:14 B:15 0.254808 $metal1  $L=0.53 $W=0.260000 $SI_W=0.26 $TYPE=10 $DIR=1 $LLX=2.170000 $LLY=1.585000 $URX=2.430000 $URY=2.115000 $lvl=1
ReB13 B:15 B 0.028846 $metal1  $L=0.06 $W=0.260000 $SI_W=0.26 $TYPE=10 $DIR=1 $LLX=2.170000 $LLY=1.525000 $URX=2.430000 $URY=1.585000 $lvl=1
ReB14 B B:16 0.312500 $metal1  $L=0.65 $W=0.260000 $SI_W=0.26 $TYPE=10 $DIR=1 $LLX=2.170000 $LLY=0.875000 $URX=2.430000 $URY=1.525000 $lvl=1
RfB15 B:12 B:13 9.411764 $li  $L=0.125 $W=0.170000 $SI_W=0.17 $TYPE=10 $DIR=0 $LLX=2.175000 $LLY=1.500000 $URX=2.300000 $URY=1.670000 $lvl=2
RgB16 B:8 Mmp3:g 173.519989 $poly  $L=0.54 $W=0.150000 $SI_W=0.15 $TYPE=10 $DIR=1 $LLX=2.120000 $LLY=3.355000 $URX=2.270000 $URY=3.895000 $lvl=3
RgB17 Mmp3:g B:9 549.919128 $poly  $L=1.77 $W=0.150000 $SI_W=0.15 $TYPE=10 $DIR=1 $LLX=2.120000 $LLY=1.585000 $URX=2.270000 $URY=3.355000 $lvl=3
RgB18 B:9 B:10 34.134449 $poly  $L=0.1645 $W=0.270000 $SI_W=0.27 $TYPE=10 $DIR=1 $LLX=2.040000 $LLY=1.420500 $URX=2.310000 $URY=1.585000 $lvl=3
RgB19 B:10 Mmn3:g 261.127960 $poly  $L=0.8125 $W=0.150000 $SI_W=0.15 $TYPE=10 $DIR=1 $LLX=2.120000 $LLY=0.607500 $URX=2.270000 $URY=1.420000 $lvl=3
RgB20 Mmn3:g B:11 116.483322 $poly  $L=0.3625 $W=0.150000 $SI_W=0.15 $TYPE=10 $DIR=1 $LLX=2.120000 $LLY=0.245000 $URX=2.270000 $URY=0.607500 $lvl=3
RjB21 B:12 B:15 152.000000 $mcon  $L=0.17 $W=0.17 $A=0.0289 $VC=0 $SAVL=0 $SAVC=0 $SI_A=0.0289 $COVER_DIR=0 $LLX=0.000000 $LLY=0.000000 $URX=0.170000 $URY=0.170000 $lvl=6
RiB22 B:9 B:13 15.000000 $licon  $L=0.17 $W=0.17 $A=0.0289 $VC=0 $SAVL=0 $SAVC=0 $SI_A=0.0289 $COVER_DIR=0 $LLX=0.000000 $LLY=0.000000 $URX=0.170000 $URY=0.170000 $lvl=7
*
*|NET n3 2.69704e-16
*|I (Mmn1:d Mmn1 d X 0 0.9805 0.6075) // $llx=0.9805 $lly=0.6075 $urx=0.9805 $ury=0.6075 $lvl=4
*|I (Mmn2:s Mmn2 s X 0 1.2595 0.6075) // $llx=1.2595 $lly=0.6075 $urx=1.2595 $ury=0.6075 $lvl=4
*|S (n3 1.1200 0.8195) // $llx=1.1200 $lly=0.8195 $urx=1.1200 $ury=0.8195 $lvl=2
*|S (n3:3 1.1200 0.6050) // $llx=1.1200 $lly=0.6050 $urx=1.1200 $ury=0.6050 $lvl=2
*|S (n3:4 1.1200 0.3950) // $llx=1.1200 $lly=0.3950 $urx=1.1200 $ury=0.3950 $lvl=2
CI1 Mmn1:d VSS! 1.47197e-18 $lvl=4
CI2 n3:3 VSS! 5.8896e-18 $lvl=2
CI3 n3:4 VSS! 1.2007e-18 $lvl=2
CI4 n3 VSS! 3.66109e-18 $lvl=2
CI5 n3:3 VSS!:5 1.21075e-18 $lvl1=2 $lvl2=2
CI6 n3:3 VSS!:6 7.10873e-19 $lvl1=2 $lvl2=4
CI7 n3 VSS!:12 3.5652e-18 $lvl1=2 $lvl2=2
CI8 n3:4 VSS!:5 2.13955e-18 $lvl1=2 $lvl2=2
CI9 Mmn1:d VSS!:8 1.94158e-18 $lvl1=4 $lvl2=2
CI10 n3:3 VSS!:12 2.09441e-17 $lvl1=2 $lvl2=2
CI11 n3:4 VSS!:12 3.27896e-18 $lvl1=2 $lvl2=2
CI12 n3:3 VSS!:8 1.08444e-17 $lvl1=2 $lvl2=2
CI13 n3:4 VSS!:8 1.10404e-17 $lvl1=2 $lvl2=2
CI14 n3:3 VSS!:15 1.79437e-18 $lvl1=2 $lvl2=1
CI15 n3:4 VSS!:15 1.91137e-18 $lvl1=2 $lvl2=1
RfI160 n3 n3:3 16.150589 $li  $L=0.2145 $W=0.170000 $SI_W=0.17 $TYPE=10 $DIR=1 $LLX=1.035000 $LLY=0.605000 $URX=1.205000 $URY=0.819500 $lvl=2
RfI161 n3:3 n3:4 15.811765 $li  $L=0.21 $W=0.170000 $SI_W=0.17 $TYPE=10 $DIR=1 $LLX=1.035000 $LLY=0.395000 $URX=1.205000 $URY=0.605000 $lvl=2
RhI162 Mmn1:d n3:3 15.000000 $licon_diff  $L=0.17 $W=0.17 $A=0.0289 $VC=0 $SAVL=0 $SAVC=0 $SI_A=0.0289 $COVER_DIR=0 $LLX=0.000000 $LLY=0.000000 $URX=0.170000 $URY=0.170000 $lvl=5
RmwI163 Mmn2:s Mmn1:d 0.001000 $diff $W=1000000 $SI_W=1000000 $TYPE=1 $DIR=0
*
*|NET n4 3.03497e-16
*|I (Mmp1:d Mmp1 d X 0 0.9805 3.3550) // $llx=0.9805 $lly=3.3550 $urx=0.9805 $ury=3.3550 $lvl=4
*|I (Mmp2:s Mmp2 s X 0 1.2595 3.3550) // $llx=1.2595 $lly=3.3550 $urx=1.2595 $ury=3.3550 $lvl=4
*|S (n4 1.1200 3.5495) // $llx=1.1200 $lly=3.5495 $urx=1.1200 $ury=3.5495 $lvl=2
*|S (n4:3 1.1200 3.2350) // $llx=1.1200 $lly=3.2350 $urx=1.1200 $ury=3.2350 $lvl=2
*|S (n4:4 1.1200 2.9250) // $llx=1.1200 $lly=2.9250 $urx=1.1200 $ury=2.9250 $lvl=2
CI16 Mmp1:d VSS! 6.89368e-19 $lvl=4
CI17 n4:3 VSS! 2.85043e-18 $lvl=2
CI18 n4:4 VSS! 2.57676e-18 $lvl=2
CI19 n4 VSS! 1.16306e-18 $lvl=2
RfI164 n4 n4:3 23.680000 $li  $L=0.3145 $W=0.170000 $SI_W=0.17 $TYPE=10 $DIR=1 $LLX=1.035000 $LLY=3.235000 $URX=1.205000 $URY=3.549500 $lvl=2
RfI165 n4:3 n4:4 23.341177 $li  $L=0.31 $W=0.170000 $SI_W=0.17 $TYPE=10 $DIR=1 $LLX=1.035000 $LLY=2.925000 $URX=1.205000 $URY=3.235000 $lvl=2
Rh_2_I166 Mmp1:d n4:3 15.000000 $licon_diff  $L=0.17 $W=0.17 $A=0.0289 $VC=0 $SAVL=0 $SAVC=0 $SI_A=0.0289 $COVER_DIR=0 $LLX=0.000000 $LLY=0.000000 $URX=0.170000 $URY=0.170000 $lvl=5
RmwI167 Mmp2:s Mmp1:d 0.001000 $diff $W=1000000 $SI_W=1000000 $TYPE=1 $DIR=0
*
*|NET n0 2.43095e-15
*|I (Mmp4:d Mmp4 d X 0 1.6895 3.3550) // $llx=1.6895 $lly=3.3550 $urx=1.6895 $ury=3.3550 $lvl=4
*|I (Mmp5:g Mmp5 g X 0 2.6850 3.0150) // $llx=2.6850 $lly=3.0150 $urx=2.6850 $ury=3.0150 $lvl=3
*|I (Mmp2:d Mmp2 d X 0 1.4105 3.3550) // $llx=1.4105 $lly=3.3550 $urx=1.4105 $ury=3.3550 $lvl=4
*|I (Mmn4:d Mmn4 d X 0 1.6895 0.6075) // $llx=1.6895 $lly=0.6075 $urx=1.6895 $ury=0.6075 $lvl=4
*|I (Mmn5:g Mmn5 g X 0 2.6850 0.7750) // $llx=2.6850 $lly=0.7750 $urx=2.6850 $ury=0.7750 $lvl=3
*|I (Mmn2:d Mmn2 d X 0 1.4105 0.6075) // $llx=1.4105 $lly=0.6075 $urx=1.4105 $ury=0.6075 $lvl=4
*|S (n0 2.6850 0.7750) // $llx=2.6850 $lly=0.7750 $urx=2.6850 $ury=0.7750 $lvl=3
*|S (n0:8 2.6850 3.8950) // $llx=2.6850 $lly=3.8950 $urx=2.6850 $ury=3.8950 $lvl=3
*|S (n0:9 2.7250 1.9500) // $llx=2.7250 $lly=1.9500 $urx=2.7250 $ury=1.9500 $lvl=3
*|S (n0:10 2.7250 1.7850) // $llx=2.7250 $lly=1.7850 $urx=2.7250 $ury=1.7850 $lvl=3
*|S (n0:11 2.6850 0.2450) // $llx=2.6850 $lly=0.2450 $urx=2.6850 $ury=0.2450 $lvl=3
*|S (n0:12 1.5500 3.7450) // $llx=1.5500 $lly=3.7450 $urx=1.5500 $ury=3.7450 $lvl=2
*|S (n0:14 1.5500 3.3550) // $llx=1.5500 $lly=3.3550 $urx=1.5500 $ury=3.3550 $lvl=2
*|S (n0:15 1.5500 3.2350) // $llx=1.5500 $lly=3.2350 $urx=1.5500 $ury=3.2350 $lvl=2
*|S (n0:16 1.5500 2.9650) // $llx=1.5500 $lly=2.9650 $urx=1.5500 $ury=2.9650 $lvl=2
*|S (n0:17 1.5500 0.8200) // $llx=1.5500 $lly=0.8200 $urx=1.5500 $ury=0.8200 $lvl=2
*|S (n0:18 1.5500 0.6050) // $llx=1.5500 $lly=0.6050 $urx=1.5500 $ury=0.6050 $lvl=2
*|S (n0:21 1.5500 0.3950) // $llx=1.5500 $lly=0.3950 $urx=1.5500 $ury=0.3950 $lvl=2
*|S (n0:22 2.7250 1.9500) // $llx=2.7250 $lly=1.9500 $urx=2.7250 $ury=1.9500 $lvl=2
*|S (n0:24 1.5500 3.3800) // $llx=1.5500 $lly=3.3800 $urx=1.5500 $ury=3.3800 $lvl=1
*|S (n0:25 1.5500 3.2350) // $llx=1.5500 $lly=3.2350 $urx=1.5500 $ury=3.2350 $lvl=1
*|S (n0:26 1.5500 2.4050) // $llx=1.5500 $lly=2.4050 $urx=1.5500 $ury=2.4050 $lvl=1
*|S (n0:27 1.5500 0.6050) // $llx=1.5500 $lly=0.6050 $urx=1.5500 $ury=0.6050 $lvl=1
*|S (n0:28 2.7250 2.4050) // $llx=2.7250 $lly=2.4050 $urx=2.7250 $ury=2.4050 $lvl=1
*|S (n0:29 2.7250 1.9500) // $llx=2.7250 $lly=1.9500 $urx=2.7250 $ury=1.9500 $lvl=1
*|S (n0:30 2.7250 1.8050) // $llx=2.7250 $lly=1.8050 $urx=2.7250 $ury=1.8050 $lvl=1
*|S (n0:31 1.5500 0.4600) // $llx=1.5500 $lly=0.4600 $urx=1.5500 $ury=0.4600 $lvl=1
CH1 Mmn4:d VSS! 9.52759e-19 $lvl=4
CH2 Mmp4:d VSS! 1.14983e-18 $lvl=4
CH3 n0:24 VSS! 5.72942e-18 $lvl=1
CH4 n0:31 VSS! 6.68869e-18 $lvl=1
CH5 n0:30 VSS! 3.5307e-18 $lvl=1
CH6 n0:28 VSS! 6.57326e-18 $lvl=1
CH7 n0:26 VSS! 7.37383e-18 $lvl=1
CH8 n0:8 VSS! 2.61142e-18 $lvl=3
CH9 n0:22 VSS! 4.28421e-18 $lvl=2
CH10 n0:17 VSS! 8.65742e-18 $lvl=2
CH11 n0:21 VSS! 2.07453e-18 $lvl=2
CH12 n0:12 VSS! 1.58488e-18 $lvl=2
CH13 n0:16 VSS! 3.00243e-18 $lvl=2
CH14 n0:18 VSS! 2.07252e-18 $lvl=2
CH15 n0:15 VSS! 1.97019e-18 $lvl=2
CH16 n0:9 VSS! 1.51071e-17 $lvl=3
CH17 n0 VSS! 1.9829e-18 $lvl=3
CH18 n0:28 n6:4 1.21544e-18 $lvl1=1 $lvl2=2
CH19 n0:28 n6:3 1.13974e-18 $lvl1=1 $lvl2=2
CH20 n0:12 Mmp4:s 1.09827e-18 $lvl1=2 $lvl2=4
CH21 n0:15 n6:4 1.00851e-18 $lvl1=2 $lvl2=2
CH22 Mmp4:d n6:3 3.25019e-19 $lvl1=4 $lvl2=2
CH23 n0:12 n6:3 2.42508e-17 $lvl1=2 $lvl2=2
CH24 n0:12 n6 9.97275e-18 $lvl1=2 $lvl2=2
CH25 n0:16 n6:4 3.10586e-18 $lvl1=2 $lvl2=2
CH26 n0:24 n6 1.58586e-18 $lvl1=1 $lvl2=2
CH27 n0:15 n6:3 1.94955e-18 $lvl1=2 $lvl2=2
CH28 n0:12 n6:4 2.14855e-18 $lvl1=2 $lvl2=2
CH29 n0:24 n6:3 4.50398e-18 $lvl1=1 $lvl2=2
CH30 n0:26 n6:3 1.70657e-18 $lvl1=1 $lvl2=2
CH31 n0:16 n6:3 3.75256e-18 $lvl1=2 $lvl2=2
CH32 n0:24 n6:4 1.99781e-18 $lvl1=1 $lvl2=2
CH33 n0:26 n6:4 2.51868e-18 $lvl1=1 $lvl2=2
CH34 n0:17 n5:4 1.32755e-18 $lvl1=2 $lvl2=2
CH35 n0:18 n5 1.27126e-18 $lvl1=2 $lvl2=2
CH36 n0:18 n5:4 1.11734e-18 $lvl1=2 $lvl2=2
CH37 n0:31 n5:4 9.05297e-19 $lvl1=1 $lvl2=2
CH38 n0:31 n5 1.80625e-18 $lvl1=1 $lvl2=2
CH39 n0:18 n5:3 4.71487e-18 $lvl1=2 $lvl2=2
CH40 n0:17 n5 2.79901e-18 $lvl1=2 $lvl2=2
CH41 n0:17 n5:3 1.44624e-17 $lvl1=2 $lvl2=2
CH42 n0:31 n5:3 3.37887e-18 $lvl1=1 $lvl2=2
CH43 n0:21 n5:3 2.84803e-18 $lvl1=2 $lvl2=2
CH44 n0:21 n5:4 2.13013e-18 $lvl1=2 $lvl2=2
CH45 n0:24 n4:4 1.45256e-18 $lvl1=1 $lvl2=2
CH46 n0:24 n4 1.09269e-18 $lvl1=1 $lvl2=2
CH47 n0:12 Mmp1:d 1.02313e-18 $lvl1=2 $lvl2=4
CH48 n0:15 n4:4 8.96439e-19 $lvl1=2 $lvl2=2
CH49 n0:26 n4:4 8.79372e-19 $lvl1=1 $lvl2=2
CH50 n0:15 n4:3 1.73682e-18 $lvl1=2 $lvl2=2
CH51 n0:16 n4:4 3.16185e-18 $lvl1=2 $lvl2=2
CH52 n0:12 n4 1.02009e-17 $lvl1=2 $lvl2=2
CH53 n0:12 n4:4 2.12788e-18 $lvl1=2 $lvl2=2
CH54 n0:16 n4:3 3.38098e-18 $lvl1=2 $lvl2=2
CH55 n0:24 n4:3 2.7937e-18 $lvl1=1 $lvl2=2
CH56 n0:12 n4:3 2.33464e-17 $lvl1=2 $lvl2=2
CH57 n0:17 n3:4 1.3141e-18 $lvl1=2 $lvl2=2
CH58 n0:18 n3:4 1.18476e-18 $lvl1=2 $lvl2=2
CH59 n0:18 n3 1.13236e-18 $lvl1=2 $lvl2=2
CH60 n0:31 n3:4 5.99301e-19 $lvl1=1 $lvl2=2
CH61 n0:17 n3 3.57299e-18 $lvl1=2 $lvl2=2
CH62 n0:18 n3:3 4.76271e-18 $lvl1=2 $lvl2=2
CH63 n0:31 n3 1.88067e-18 $lvl1=1 $lvl2=2
CH64 n0:21 n3:4 1.95636e-18 $lvl1=2 $lvl2=2
CH65 n0:17 n3:3 1.46446e-17 $lvl1=2 $lvl2=2
CH66 n0:31 n3:3 2.53705e-18 $lvl1=1 $lvl2=2
CH67 n0:21 n3:3 2.97387e-18 $lvl1=2 $lvl2=2
CH68 n0:17 VSS!:8 7.59004e-18 $lvl1=2 $lvl2=2
CH69 n0:31 VSS!:5 2.8742e-18 $lvl1=1 $lvl2=2
CH70 n0:18 VSS!:8 2.77794e-18 $lvl1=2 $lvl2=2
CH71 n0:18 VSS!:15 2.53216e-18 $lvl1=2 $lvl2=1
CH72 n0:21 VSS!:5 2.42141e-18 $lvl1=2 $lvl2=2
CH73 Mmn4:d VSS!:8 2.13192e-18 $lvl1=4 $lvl2=2
CH74 n0:31 VSS!:8 2.11695e-18 $lvl1=1 $lvl2=2
CH75 n0:31 VSS!:3 2.06032e-18 $lvl1=1 $lvl2=2
CH76 n0:26 VSS!:15 1.79683e-18 $lvl1=1 $lvl2=1
CH77 n0:21 VSS!:15 1.66203e-18 $lvl1=2 $lvl2=1
CH78 n0:18 VSS!:5 1.33182e-18 $lvl1=2 $lvl2=2
CH79 n0:9 VSS!:3 1.2202e-18 $lvl1=3 $lvl2=2
CH80 n0 VSS!:10 1.02593e-18 $lvl1=3 $lvl2=2
CH81 n0:22 VSS!:3 9.8159e-19 $lvl1=2 $lvl2=2
CH82 n0:28 VSS!:15 7.42339e-19 $lvl1=1 $lvl2=1
CH83 n0:30 VSS!:15 7.18987e-19 $lvl1=1 $lvl2=1
CH84 n0:17 VSS!:6 6.14193e-19 $lvl1=2 $lvl2=4
CH85 n0:31 VSS!:16 6.10128e-19 $lvl1=1 $lvl2=1
CH86 n0 VSS!:3 1.29652e-16 $lvl1=3 $lvl2=2
CH87 n0 VSS!:8 8.99648e-18 $lvl1=3 $lvl2=2
CH88 n0:31 VSS!:15 4.73698e-17 $lvl1=1 $lvl2=1
CH89 n0:21 VSS!:8 1.19744e-17 $lvl1=2 $lvl2=2
ReH134 n0:24 n0:25 0.078804 $metal1  $L=0.145 $W=0.230000 $SI_W=0.23 $TYPE=10 $DIR=1 $LLX=1.435000 $LLY=3.235000 $URX=1.665000 $URY=3.380000 $lvl=1
ReH135 n0:25 n0:26 0.450951 $metal1  $L=0.82975 $W=0.230000 $SI_W=0.23 $TYPE=10 $DIR=1 $LLX=1.435000 $LLY=2.405000 $URX=1.665000 $URY=3.235000 $lvl=1
ReH136 n0:26 n0:27 0.978397 $metal1  $L=1.80025 $W=0.230000 $SI_W=0.23 $TYPE=10 $DIR=1 $LLX=1.435000 $LLY=0.605000 $URX=1.665000 $URY=2.405000 $lvl=1
ReH137 n0:26 n0:28 0.638587 $metal1  $L=1.175 $W=0.230000 $SI_W=0.23 $TYPE=10 $DIR=0 $LLX=1.550000 $LLY=2.290000 $URX=2.725000 $URY=2.520000 $lvl=1
ReH138 n0:28 n0:29 0.247418 $metal1  $L=0.45525 $W=0.230000 $SI_W=0.23 $TYPE=10 $DIR=1 $LLX=2.610000 $LLY=1.950000 $URX=2.840000 $URY=2.405000 $lvl=1
ReH139 n0:29 n0:30 0.078804 $metal1  $L=0.145 $W=0.230000 $SI_W=0.23 $TYPE=10 $DIR=1 $LLX=2.610000 $LLY=1.805000 $URX=2.840000 $URY=1.950000 $lvl=1
ReH140 n0:27 n0:31 0.078804 $metal1  $L=0.145 $W=0.230000 $SI_W=0.23 $TYPE=10 $DIR=1 $LLX=1.435000 $LLY=0.460000 $URX=1.665000 $URY=0.605000 $lvl=1
RfH141 n0:12 n0:14 29.364706 $li  $L=0.39 $W=0.170000 $SI_W=0.17 $TYPE=10 $DIR=1 $LLX=1.465000 $LLY=3.355000 $URX=1.635000 $URY=3.745000 $lvl=2
RfH142 n0:14 n0:15 9.035295 $li  $L=0.12 $W=0.170000 $SI_W=0.17 $TYPE=10 $DIR=1 $LLX=1.465000 $LLY=3.235000 $URX=1.635000 $URY=3.355000 $lvl=2
RfH143 n0:15 n0:16 20.329411 $li  $L=0.27 $W=0.170000 $SI_W=0.17 $TYPE=10 $DIR=1 $LLX=1.465000 $LLY=2.965000 $URX=1.635000 $URY=3.235000 $lvl=2
RfH144 n0:17 n0:18 16.188236 $li  $L=0.215 $W=0.170000 $SI_W=0.17 $TYPE=10 $DIR=1 $LLX=1.465000 $LLY=0.605000 $URX=1.635000 $URY=0.820000 $lvl=2
RfH145 n0:18 n0:21 15.811765 $li  $L=0.21 $W=0.170000 $SI_W=0.17 $TYPE=10 $DIR=1 $LLX=1.465000 $LLY=0.395000 $URX=1.635000 $URY=0.605000 $lvl=2
RgH146 n0:8 Mmp5:g 282.773346 $poly  $L=0.88 $W=0.150000 $SI_W=0.15 $TYPE=10 $DIR=1 $LLX=2.610000 $LLY=3.015000 $URX=2.760000 $URY=3.895000 $lvl=3
RgH147 Mmp5:g n0:9 318.655548 $poly  $L=1.065 $W=0.150000 $SI_W=0.15 $TYPE=10 $DIR=1 $LLX=2.610000 $LLY=1.950000 $URX=2.760000 $URY=3.015000 $lvl=3
RgH148 n0:9 n0:10 34.134449 $poly  $L=0.1645 $W=0.270000 $SI_W=0.27 $TYPE=10 $DIR=1 $LLX=2.590000 $LLY=1.785500 $URX=2.860000 $URY=1.950000 $lvl=3
RgH149 n0:10 n0 324.591278 $poly  $L=1.01 $W=0.150000 $SI_W=0.15 $TYPE=10 $DIR=1 $LLX=2.610000 $LLY=0.775000 $URX=2.760000 $URY=1.785000 $lvl=3
RgH150 n0 n0:11 170.306671 $poly  $L=0.53 $W=0.150000 $SI_W=0.15 $TYPE=10 $DIR=1 $LLX=2.610000 $LLY=0.245000 $URX=2.760000 $URY=0.775000 $lvl=3
RhH151 Mmn4:d n0:18 15.000000 $licon_diff  $L=0.17 $W=0.17 $A=0.0289 $VC=0 $SAVL=0 $SAVC=0 $SI_A=0.0289 $COVER_DIR=0 $LLX=0.000000 $LLY=0.000000 $URX=0.170000 $URY=0.170000 $lvl=5
Rh_2_H152 Mmp4:d n0:14 7.500000 $licon_diff  $A=0.0578 $VC=0 $SAVL=0 $SAVC=0 $SI_A=0.0578 $COVER_DIR=0 $LLX=0.000000 $LLY=0.000000 $URX=-0.057800 $URY=-2.000000 $lvl=5
RjH153 n0:15 n0:25 152.000000 $mcon  $L=0.17 $W=0.17 $A=0.0289 $VC=0 $SAVL=0 $SAVC=0 $SI_A=0.0289 $COVER_DIR=0 $LLX=0.000000 $LLY=0.000000 $URX=0.170000 $URY=0.170000 $lvl=6
RjH154 n0:18 n0:27 152.000000 $mcon  $L=0.17 $W=0.17 $A=0.0289 $VC=0 $SAVL=0 $SAVC=0 $SI_A=0.0289 $COVER_DIR=0 $LLX=0.000000 $LLY=0.000000 $URX=0.170000 $URY=0.170000 $lvl=6
RjH155 n0:22 n0:29 152.000000 $mcon  $L=0.17 $W=0.17 $A=0.0289 $VC=0 $SAVL=0 $SAVC=0 $SI_A=0.0289 $COVER_DIR=0 $LLX=0.000000 $LLY=0.000000 $URX=0.170000 $URY=0.170000 $lvl=6
RiH156 n0:9 n0:22 15.000000 $licon  $L=0.17 $W=0.17 $A=0.0289 $VC=0 $SAVL=0 $SAVC=0 $SI_A=0.0289 $COVER_DIR=0 $LLX=0.000000 $LLY=0.000000 $URX=0.170000 $URY=0.170000 $lvl=7
RmwH157 Mmp2:d Mmp4:d 0.001000 $diff $W=1000000 $SI_W=1000000 $TYPE=1 $DIR=0
RmwH158 Mmn5:g n0 0.001000 $poly $W=1000000 $SI_W=1000000 $TYPE=1 $DIR=0
RmwH159 Mmn2:d Mmn4:d 0.001000 $diff $W=1000000 $SI_W=1000000 $TYPE=1 $DIR=0
*
*|NET Y 1.32662e-15
*|P (Y X 0 3.2350 1.7200) // $llx=3.2350 $lly=1.7200 $urx=3.2350 $ury=1.7200 $lvl=1
*|I (Mmp5:d Mmp5 d X 0 2.7605 3.0150) // $llx=2.7605 $lly=3.0150 $urx=2.7605 $ury=3.0150 $lvl=4
*|I (Mmn5:d Mmn5 d X 0 2.7605 0.7750) // $llx=2.7605 $lly=0.7750 $urx=2.7605 $ury=0.7750 $lvl=4
*|S (Y:1 2.9000 3.7450) // $llx=2.9000 $lly=3.7450 $urx=2.9000 $ury=3.7450 $lvl=2
*|S (Y:2 2.9000 3.2050) // $llx=2.9000 $lly=3.2050 $urx=2.9000 $ury=3.2050 $lvl=2
*|S (Y:4 2.9000 3.0150) // $llx=2.9000 $lly=3.0150 $urx=2.9000 $ury=3.0150 $lvl=2
*|S (Y:5 2.9000 2.2850) // $llx=2.9000 $lly=2.2850 $urx=2.9000 $ury=2.2850 $lvl=2
*|S (Y:6 2.9000 1.1550) // $llx=2.9000 $lly=1.1550 $urx=2.9000 $ury=1.1550 $lvl=2
*|S (Y:8 2.9000 0.7750) // $llx=2.9000 $lly=0.7750 $urx=2.9000 $ury=0.7750 $lvl=2
*|S (Y:9 2.9000 0.7400) // $llx=2.9000 $lly=0.7400 $urx=2.9000 $ury=0.7400 $lvl=2
*|S (Y:10 3.2200 0.7400) // $llx=3.2200 $lly=0.7400 $urx=3.2200 $ury=0.7400 $lvl=1
*|S (Y:11 2.9000 0.7400) // $llx=2.9000 $lly=0.7400 $urx=2.9000 $ury=0.7400 $lvl=1
*|S (Y:12 3.2200 3.2050) // $llx=3.2200 $lly=3.2050 $urx=3.2200 $ury=3.2050 $lvl=1
*|S (Y:13 2.9000 3.2050) // $llx=2.9000 $lly=3.2050 $urx=2.9000 $ury=3.2050 $lvl=1
*|S (Y:14 2.7550 3.2050) // $llx=2.7550 $lly=3.2050 $urx=2.7550 $ury=3.2050 $lvl=1
CD1 Mmn5:d VSS! 2.36813e-18 $lvl=4
CD2 Mmp5:d VSS! 1.65016e-18 $lvl=4
CD3 Y:11 VSS! 1.24682e-17 $lvl=1
CD4 Y:14 VSS! 1.28239e-17 $lvl=1
CD5 Y:6 VSS! 1.96878e-17 $lvl=2
CD6 Y:1 VSS! 6.35042e-18 $lvl=2
CD7 Y:5 VSS! 1.81469e-18 $lvl=2
CD8 Y:9 VSS! 2.48953e-18 $lvl=2
CD9 Y:2 VSS! 2.43043e-18 $lvl=2
CD10 Y VSS! 1.07658e-17 $lvl=1
CD11 Y:1 n0:9 5.342e-18 $lvl1=2 $lvl2=3
CD12 Y:14 n0:26 5.20958e-18 $lvl1=1 $lvl2=1
CD13 Y:14 n0:24 4.31431e-18 $lvl1=1 $lvl2=1
CD14 Y:11 n0:30 4.07077e-18 $lvl1=1 $lvl2=1
CD15 Y:5 n0:28 4.0275e-18 $lvl1=2 $lvl2=1
CD16 Y:1 n0:22 3.53926e-18 $lvl1=2 $lvl2=2
CD17 Y:5 n0:9 3.53251e-18 $lvl1=2 $lvl2=3
CD18 Y:14 n0:30 3.31325e-18 $lvl1=1 $lvl2=1
CD19 Y:11 n0:31 2.58248e-18 $lvl1=1 $lvl2=1
CD20 Y:6 n0:22 2.24803e-18 $lvl1=2 $lvl2=2
CD21 Y n0:9 2.19782e-18 $lvl1=1 $lvl2=3
CD22 Y:6 n0:9 2.16319e-18 $lvl1=2 $lvl2=3
CD23 Mmp5:d n0:9 1.95438e-18 $lvl1=4 $lvl2=3
CD24 Y:11 n0:22 1.85569e-18 $lvl1=1 $lvl2=2
CD25 Y:14 n0:22 1.62293e-18 $lvl1=1 $lvl2=2
CD26 Y:11 n0:26 1.49293e-18 $lvl1=1 $lvl2=1
CD27 Y n0:26 1.21991e-18 $lvl1=1 $lvl2=1
CD28 Y:11 n0:9 1.04417e-18 $lvl1=1 $lvl2=3
CD29 Y:5 n0:30 1.00365e-18 $lvl1=2 $lvl2=1
CD30 Y:6 n0:30 7.8749e-19 $lvl1=2 $lvl2=1
CD31 Y:5 n0:8 7.39014e-19 $lvl1=2 $lvl2=3
CD32 Y:11 n0:28 7.06603e-19 $lvl1=1 $lvl2=1
CD33 Y:1 n0:30 6.80856e-19 $lvl1=2 $lvl2=1
CD34 Y:14 n0:31 6.55464e-19 $lvl1=1 $lvl2=1
CD35 Y:6 n0 1.30759e-16 $lvl1=2 $lvl2=3
CD36 Y:1 n0:28 7.28566e-18 $lvl1=2 $lvl2=1
CD37 Y n0:22 9.93606e-18 $lvl1=1 $lvl2=2
CD38 Y:14 n0:28 4.1843e-17 $lvl1=1 $lvl2=1