*
*|DSPF 1.5
*
*|DATE "Wed Jan  8 21:10:28 2025"
*|VENDOR "Cadence Design Systems"
*|PROGRAM "Cadence Quantus Extraction"
*|VERSION "22.1.0-p089 Linux 64 bit - (Thu Jan 19 11:47:08 PST 2023)"
*|DESIGN MX4X4_HS
*|DIVIDER /
*|DELIMITER :
*|DeviceFingerDelim "@"
*|BUSBIT []
*|GLOBAL_TEMPERATURE 25
*|OPERATING_TEMPERATURE 25

** *VIA_COVERAGE_CODES
** *index FF FS FP FU SF SS SP SU PF PS PP PU UF US UP UU X_by_Y
** * "FF" stands for Full landing and Full coverage
** *0 0 0 0 0 0 0 0 0 0 0 0 0 0 0 0 0
** *1 0 0 0 0 0 0 0 0 0 0 0 0 0 0 0 1 1x1
** *2 0 0 0 0 0 0 0 0 0 0 0 0 0 0 1 0 1x1
** *3 0 0 0 0 0 0 0 0 0 0 0 0 0 1 0 0 1x1
** *4 0 0 0 0 0 0 0 0 0 0 0 0 1 0 0 0 1x1
** *5 0 0 0 0 0 0 0 0 0 0 0 1 0 0 0 0 1x1
** *6 0 0 0 0 0 0 0 0 0 0 1 0 0 0 0 0 1x1
** *7 0 0 0 0 0 0 0 0 0 1 0 0 0 0 0 0 1x1
** *8 0 0 0 0 0 0 0 0 1 0 0 0 0 0 0 0 1x1
** *9 0 0 0 0 0 0 0 1 0 0 0 0 0 0 0 0 1x1
** *10 0 0 0 0 0 0 1 0 0 0 0 0 0 0 0 0 1x1
** *11 0 0 0 0 0 1 0 0 0 0 0 0 0 0 0 0 1x1
** *12 0 0 0 0 1 0 0 0 0 0 0 0 0 0 0 0 1x1
** *13 0 0 0 1 0 0 0 0 0 0 0 0 0 0 0 0 1x1
** *14 0 0 1 0 0 0 0 0 0 0 0 0 0 0 0 0 1x1
** *15 0 1 0 0 0 0 0 0 0 0 0 0 0 0 0 0 1x1
** *16 1 0 0 0 0 0 0 0 0 0 0 0 0 0 0 0 1x1

** *RESISTOR_TYPES
** *1 SHORTING_ELEMENT
** *2 PRES_NG
** *3 PRES_PG
** *4 PRES_NF
** *5 PRES_PF
** *6 TCN_NDIFF
** *7 TCN_PDIFF
** *8 TCN_NFIELD
** *9 TCN_PFIELD
** *10 QUALITY_EXTRACTED
** *11 GCNLAND
** *12 TCNLAND
** *13 DUMMY
** *14 RSD
** *15 BRIDGE

** *RESISTOR_CURRENT_DIRECTION
** *0 HORIZONTAL
** *1 VERTICAL
** *2 45 DEGREE

** QRC_TECH_DIR /vols/wfo_devel/projects/reference_SKY130/tech/sky130_release_0.0.4/quantus/extraction/typical 
** HIERARCHICAL_SPLIT_PINS_DELIMITER '%'
** caps2d version: 10
*
.SUBCKT  MX4X4_HS A B C D S0 S1 Y
*
*Net Section
*
*|GROUND_NET VSS!
*
*LAYER_MAP
*0 none
*1 metal1
*2 li
*3 poly
*4 diff
*5 licon_diff
*6 mcon
*7 licon
*8 FOX

*|NET n3 2.75134e-16
*|I (Mmn3:s Mmn3 s X 0 1.2595 0.6075) // $llx=1.2595 $lly=0.6075 $urx=1.2595 $ury=0.6075 $lvl=4
*|I (Mmn2:d Mmn2 d X 0 0.9805 0.6075) // $llx=0.9805 $lly=0.6075 $urx=0.9805 $ury=0.6075 $lvl=4
*|S (n3 1.1200 0.8195) // $llx=1.1200 $lly=0.8195 $urx=1.1200 $ury=0.8195 $lvl=2
*|S (n3:3 1.1200 0.6050) // $llx=1.1200 $lly=0.6050 $urx=1.1200 $ury=0.6050 $lvl=2
*|S (n3:4 1.1200 0.3950) // $llx=1.1200 $lly=0.3950 $urx=1.1200 $ury=0.3950 $lvl=2
CO1 Mmn3:s VSS! 1.11444e-18 $lvl=4
CO2 n3:3 VSS! 7.06262e-18 $lvl=2
CO3 n3:4 VSS! 1.54626e-18 $lvl=2
CO4 n3 VSS! 1.99701e-18 $lvl=2
CO5 n3:3 VSS!:11 1.04733e-18 $lvl1=2 $lvl2=2
CO6 n3:3 VSS!:6 7.44923e-19 $lvl1=2 $lvl2=4
CO7 Mmn3:s VSS!:31 4.41545e-19 $lvl1=4 $lvl2=2
CO8 n3 VSS!:34 4.10912e-19 $lvl1=2 $lvl2=1
CO9 n3:3 VSS!:13 3.81611e-19 $lvl1=2 $lvl2=2
CO10 n3 VSS!:31 3.64836e-18 $lvl1=2 $lvl2=2
CO11 n3:3 VSS!:14 1.01088e-17 $lvl1=2 $lvl2=2
CO12 n3:4 VSS!:14 1.0814e-17 $lvl1=2 $lvl2=2
CO13 n3:4 VSS!:34 2.32485e-18 $lvl1=2 $lvl2=1
CO14 Mmn3:s VSS!:14 1.5758e-18 $lvl1=4 $lvl2=2
CO15 n3:3 VSS!:31 2.10043e-17 $lvl1=2 $lvl2=2
CO16 n3:4 VSS!:11 1.98772e-18 $lvl1=2 $lvl2=2
CO17 n3:4 VSS!:31 4.1883e-18 $lvl1=2 $lvl2=2
CO18 n3:3 VSS!:34 3.26942e-18 $lvl1=2 $lvl2=1
RfO444 n3 n3:3 16.150589 $li  $L=0.2145 $W=0.170000 $SI_W=0.17 $TYPE=10 $DIR=1 $LLX=1.035000 $LLY=0.605000 $URX=1.205000 $URY=0.819500 $lvl=2
RfO445 n3:3 n3:4 15.811765 $li  $L=0.21 $W=0.170000 $SI_W=0.17 $TYPE=10 $DIR=1 $LLX=1.035000 $LLY=0.395000 $URX=1.205000 $URY=0.605000 $lvl=2
RhO446 Mmn3:s n3:3 15.000000 $licon_diff  $L=0.17 $W=0.17 $A=0.0289 $VC=0 $SAVL=0 $SAVC=0 $SI_A=0.0289 $COVER_DIR=0 $LLX=0.000000 $LLY=0.000000 $URX=0.170000 $URY=0.170000 $lvl=5
RmwO447 Mmn2:d Mmn3:s 0.001000 $diff $W=1000000 $SI_W=1000000 $TYPE=1 $DIR=0
*
*|NET n4 2.99055e-16
*|I (Mmp3:s Mmp3 s X 0 1.2595 3.3550) // $llx=1.2595 $lly=3.3550 $urx=1.2595 $ury=3.3550 $lvl=4
*|I (Mmp2:d Mmp2 d X 0 0.9805 3.3550) // $llx=0.9805 $lly=3.3550 $urx=0.9805 $ury=3.3550 $lvl=4
*|S (n4 1.1200 3.5895) // $llx=1.1200 $lly=3.5895 $urx=1.1200 $ury=3.5895 $lvl=2
*|S (n4:3 1.1200 3.2750) // $llx=1.1200 $lly=3.2750 $urx=1.1200 $ury=3.2750 $lvl=2
*|S (n4:4 1.1200 2.9650) // $llx=1.1200 $lly=2.9650 $urx=1.1200 $ury=2.9650 $lvl=2
CO19 Mmp3:s VSS! 9.7163e-19 $lvl=4
CO20 n4:3 VSS! 4.49542e-18 $lvl=2
CO21 n4:4 VSS! 2.22749e-18 $lvl=2
CO22 n4 VSS! 2.49944e-18 $lvl=2
RfO448 n4 n4:3 23.680000 $li  $L=0.3145 $W=0.170000 $SI_W=0.17 $TYPE=10 $DIR=1 $LLX=1.035000 $LLY=3.275000 $URX=1.205000 $URY=3.589500 $lvl=2
RfO449 n4:3 n4:4 23.341177 $li  $L=0.31 $W=0.170000 $SI_W=0.17 $TYPE=10 $DIR=1 $LLX=1.035000 $LLY=2.965000 $URX=1.205000 $URY=3.275000 $lvl=2
Rh_2_O450 Mmp3:s n4:3 15.000000 $licon_diff  $L=0.17 $W=0.17 $A=0.0289 $VC=0 $SAVL=0 $SAVC=0 $SI_A=0.0289 $COVER_DIR=0 $LLX=0.000000 $LLY=0.000000 $URX=0.170000 $URY=0.170000 $lvl=5
RmwO451 Mmp2:d Mmp3:s 0.001000 $diff $W=1000000 $SI_W=1000000 $TYPE=1 $DIR=0
*
*|NET n5 2.73067e-16
*|I (Mmn5:s Mmn5 s X 0 1.8405 0.6075) // $llx=1.8405 $lly=0.6075 $urx=1.8405 $ury=0.6075 $lvl=4
*|I (Mmn4:d Mmn4 d X 0 2.1195 0.6075) // $llx=2.1195 $lly=0.6075 $urx=2.1195 $ury=0.6075 $lvl=4
*|S (n5 1.9800 0.8195) // $llx=1.9800 $lly=0.8195 $urx=1.9800 $ury=0.8195 $lvl=2
*|S (n5:3 1.9800 0.6050) // $llx=1.9800 $lly=0.6050 $urx=1.9800 $ury=0.6050 $lvl=2
*|S (n5:4 1.9800 0.3950) // $llx=1.9800 $lly=0.3950 $urx=1.9800 $ury=0.3950 $lvl=2
CO23 Mmn5:s VSS! 1.26763e-18 $lvl=4
CO24 n5:3 VSS! 6.65665e-18 $lvl=2
CO25 n5:4 VSS! 1.84232e-18 $lvl=2
CO26 n5 VSS! 4.49672e-18 $lvl=2
CO27 n5:3 VSS!:11 1.01389e-18 $lvl1=2 $lvl2=2
CO28 n5:3 VSS!:6 6.37184e-19 $lvl1=2 $lvl2=4
CO29 n5:3 VSS!:14 6.14571e-19 $lvl1=2 $lvl2=2
CO30 Mmn5:s VSS!:28 4.46379e-19 $lvl1=4 $lvl2=2
CO31 n5:4 VSS!:14 4.2177e-19 $lvl1=2 $lvl2=2
CO32 n5:3 VSS!:34 1.93282e-18 $lvl1=2 $lvl2=1
CO33 n5:3 VSS!:13 9.72162e-18 $lvl1=2 $lvl2=2
CO34 n5:4 VSS!:13 1.12853e-17 $lvl1=2 $lvl2=2
CO35 n5:4 VSS!:11 2.07622e-18 $lvl1=2 $lvl2=2
CO36 n5:3 VSS!:28 2.11434e-17 $lvl1=2 $lvl2=2
CO37 n5 VSS!:28 3.44151e-18 $lvl1=2 $lvl2=2
CO38 n5:4 VSS!:34 1.93338e-18 $lvl1=2 $lvl2=1
CO39 n5:4 VSS!:28 3.94456e-18 $lvl1=2 $lvl2=2
CO40 Mmn5:s VSS!:13 1.51355e-18 $lvl1=4 $lvl2=2
RfO452 n5 n5:3 16.150589 $li  $L=0.2145 $W=0.170000 $SI_W=0.17 $TYPE=10 $DIR=1 $LLX=1.895000 $LLY=0.605000 $URX=2.065000 $URY=0.819500 $lvl=2
RfO453 n5:3 n5:4 15.811765 $li  $L=0.21 $W=0.170000 $SI_W=0.17 $TYPE=10 $DIR=1 $LLX=1.895000 $LLY=0.395000 $URX=2.065000 $URY=0.605000 $lvl=2
RhO454 Mmn5:s n5:3 15.000000 $licon_diff  $L=0.17 $W=0.17 $A=0.0289 $VC=0 $SAVL=0 $SAVC=0 $SI_A=0.0289 $COVER_DIR=0 $LLX=0.000000 $LLY=0.000000 $URX=0.170000 $URY=0.170000 $lvl=5
RmwO455 Mmn4:d Mmn5:s 0.001000 $diff $W=1000000 $SI_W=1000000 $TYPE=1 $DIR=0
*
*|NET A 8.96735e-16
*|P (A X 0 0.9350 2.2500) // $llx=0.9350 $lly=2.2500 $urx=0.9350 $ury=2.2500 $lvl=1
*|I (Mmp2:g Mmp2 g X 0 0.9050 3.3550) // $llx=0.9050 $lly=3.3550 $urx=0.9050 $ury=3.3550 $lvl=3
*|I (Mmn2:g Mmn2 g X 0 0.9050 0.6075) // $llx=0.9050 $lly=0.6075 $urx=0.9050 $ury=0.6075 $lvl=3
*|S (A:8 0.9050 3.8950) // $llx=0.9050 $lly=3.8950 $urx=0.9050 $ury=3.8950 $lvl=3
*|S (A:9 0.8450 2.2795) // $llx=0.8450 $lly=2.2795 $urx=0.8450 $ury=2.2795 $lvl=3
*|S (A:10 0.8450 2.1150) // $llx=0.8450 $lly=2.1150 $urx=0.8450 $ury=2.1150 $lvl=3
*|S (A:11 0.8450 1.9500) // $llx=0.8450 $lly=1.9500 $urx=0.8450 $ury=1.9500 $lvl=3
*|S (A:12 0.9050 0.2450) // $llx=0.9050 $lly=0.2450 $urx=0.9050 $ury=0.2450 $lvl=3
*|S (A:13 1.0850 2.1150) // $llx=1.0850 $lly=2.1150 $urx=1.0850 $ury=2.1150 $lvl=2
*|S (A:14 0.9200 2.1150) // $llx=0.9200 $lly=2.1150 $urx=0.9200 $ury=2.1150 $lvl=2
*|S (A:15 0.8450 2.1150) // $llx=0.8450 $lly=2.1150 $urx=0.8450 $ury=2.1150 $lvl=2
*|S (A:16 0.5250 2.1150) // $llx=0.5250 $lly=2.1150 $urx=0.5250 $ury=2.1150 $lvl=2
*|S (A:17 0.9200 2.8950) // $llx=0.9200 $lly=2.8950 $urx=0.9200 $ury=2.8950 $lvl=1
*|S (A:18 0.9200 2.1150) // $llx=0.9200 $lly=2.1150 $urx=0.9200 $ury=2.1150 $lvl=1
*|S (A:19 0.9200 1.6550) // $llx=0.9200 $lly=1.6550 $urx=0.9200 $ury=1.6550 $lvl=1
CA1 A:17 VSS! 1.00449e-17 $lvl=1
CA2 A:19 VSS! 6.92887e-18 $lvl=1
CA3 A:8 VSS! 1.28173e-18 $lvl=3
CA4 A:12 VSS! 2.77309e-18 $lvl=3
CA5 A:15 VSS! 2.347e-18 $lvl=2
CA6 A:16 VSS! 2.6471e-18 $lvl=2
CA7 A:14 VSS! 1.59395e-18 $lvl=2
CA8 A:10 VSS! 1.36873e-17 $lvl=3
CA9 A:8 n4 1.24818e-18 $lvl1=3 $lvl2=2
CA10 A:8 n4:4 1.2017e-18 $lvl1=3 $lvl2=2
CA11 A:17 n4:3 3.12173e-18 $lvl1=1 $lvl2=2
CA12 A:17 n4:4 3.56453e-18 $lvl1=1 $lvl2=2
CA13 A:8 n4:3 6.80542e-17 $lvl1=3 $lvl2=2
CA14 A:12 n3:3 6.56802e-17 $lvl1=3 $lvl2=2
CA15 A:15 n0:16 4.20953e-18 $lvl1=2 $lvl2=2
CA16 A:17 n0:24 2.2376e-18 $lvl1=1 $lvl2=1
CA17 A:8 n0 1.51172e-18 $lvl1=3 $lvl2=2
CA18 A:19 n0:24 1.18337e-18 $lvl1=1 $lvl2=1
CA19 A:10 n0:16 1.05674e-18 $lvl1=3 $lvl2=2
CA20 A:19 n0:25 9.55032e-19 $lvl1=1 $lvl2=1
CA21 A:14 n0:16 8.41611e-19 $lvl1=2 $lvl2=2
CA22 A:17 n0:4 8.10343e-19 $lvl1=1 $lvl2=2
CA23 A:17 n0:22 8.68471e-18 $lvl1=1 $lvl2=1
CA24 A:10 S0b:36 4.37643e-18 $lvl1=3 $lvl2=2
CA25 A:19 S0b:42 3.33799e-18 $lvl1=1 $lvl2=1
CA26 A:14 S0b:36 3.25421e-18 $lvl1=2 $lvl2=2
CA27 A:14 S0b:38 2.88713e-18 $lvl1=2 $lvl2=2
CA28 A:16 S0b:37 2.71565e-18 $lvl1=2 $lvl2=2
CA29 A:10 S0b:17 2.32309e-18 $lvl1=3 $lvl2=3
CA30 A:19 S0b:37 1.47072e-18 $lvl1=1 $lvl2=2
CA31 A:17 S0b:25 1.40753e-18 $lvl1=1 $lvl2=2
CA32 A:17 S0b:38 1.21381e-18 $lvl1=1 $lvl2=2
CA33 A:14 S0b:41 1.13421e-18 $lvl1=2 $lvl2=1
CA34 A:19 S0b:39 1.01414e-18 $lvl1=1 $lvl2=1
CA35 A:17 S0b:42 9.01627e-19 $lvl1=1 $lvl2=1
CA36 A:15 S0b:17 8.1795e-19 $lvl1=2 $lvl2=3
CA37 A:8 S0b:25 7.96199e-19 $lvl1=3 $lvl2=2
CA38 A:16 S0b:39 6.37442e-19 $lvl1=2 $lvl2=1
CA39 A:17 S0b:36 5.32051e-19 $lvl1=1 $lvl2=2
CA40 A:17 S0b:37 5.17622e-19 $lvl1=1 $lvl2=2
CA41 A:17 S0b:28 5.17038e-19 $lvl1=1 $lvl2=2
CA42 A:10 S0b:41 3.72463e-19 $lvl1=3 $lvl2=1
CA43 A:12 S0b:29 3.15546e-19 $lvl1=3 $lvl2=2
CA44 A:10 S0b:38 7.44883e-18 $lvl1=3 $lvl2=2
CA45 A:16 S0b:41 4.80183e-18 $lvl1=2 $lvl2=1
CA46 A:19 S0b:36 7.12342e-18 $lvl1=1 $lvl2=2
CA47 A:15 S0b:36 1.71453e-17 $lvl1=2 $lvl2=2
CA48 A:19 S0b:38 7.90882e-18 $lvl1=1 $lvl2=2
CA49 A:16 S0b:38 1.97264e-17 $lvl1=2 $lvl2=2
CA50 A:17 S0b:41 2.27761e-17 $lvl1=1 $lvl2=1
CA51 A:17 S0b:39 2.90886e-17 $lvl1=1 $lvl2=1
CA52 A:15 S0b:38 9.54667e-18 $lvl1=2 $lvl2=2
CA53 A:19 S0b:41 2.10026e-17 $lvl1=1 $lvl2=1
CA54 A:12 VSS!:31 6.73326e-17 $lvl1=3 $lvl2=2
CA55 A:12 VSS!:14 8.76491e-18 $lvl1=3 $lvl2=2
CA56 A:19 VDD! 3.61663e-18 $lvl1=1 $lvl2=1
CA57 A:16 VDD! 1.30713e-18 $lvl1=2 $lvl2=1
CA58 A:17 VDD!:35 9.48208e-19 $lvl1=1 $lvl2=1
CA59 A:17 VDD!:1 8.3746e-18 $lvl1=1 $lvl2=2
CA60 A:8 VDD!:4 1.0547e-17 $lvl1=3 $lvl2=2
CA61 A:17 VDD!:34 6.45483e-18 $lvl1=1 $lvl2=1
CA62 A:8 VDD!:1 1.32488e-16 $lvl1=3 $lvl2=2
CA63 A:10 VDD! 1.05963e-17 $lvl1=3 $lvl2=1
CA64 A:17 VDD! 8.62219e-18 $lvl1=1 $lvl2=1
CA65 A:17 S0:43 4.44348e-18 $lvl1=1 $lvl2=2
CA66 A:16 S0:25 4.22448e-18 $lvl1=2 $lvl2=3
CA67 A:10 S0:42 3.59427e-18 $lvl1=3 $lvl2=2
CA68 A:14 S0:42 3.4391e-18 $lvl1=2 $lvl2=2
CA69 A:12 S0:27 2.58584e-18 $lvl1=3 $lvl2=3
CA70 A:14 S0:45 2.52286e-18 $lvl1=2 $lvl2=2
CA71 A:15 S0:32 2.44437e-18 $lvl1=2 $lvl2=3
CA72 A:19 S0:57 2.30378e-18 $lvl1=1 $lvl2=2
CA73 A:19 S0:55 2.1016e-18 $lvl1=1 $lvl2=2
CA74 A:14 S0 2.03007e-18 $lvl1=2 $lvl2=1
CA75 A:8 S0:32 1.78635e-18 $lvl1=3 $lvl2=3
CA76 A:17 S0:61 1.61258e-18 $lvl1=1 $lvl2=1
CA77 A:12 S0:55 1.53679e-18 $lvl1=3 $lvl2=2
CA78 A:15 S0 1.33515e-18 $lvl1=2 $lvl2=1
CA79 A:15 S0:43 1.30336e-18 $lvl1=2 $lvl2=2
CA80 A:12 S0:57 1.14601e-18 $lvl1=3 $lvl2=2
CA81 A:14 S0:43 1.12567e-18 $lvl1=2 $lvl2=2
CA82 A:8 S0:25 1.1224e-18 $lvl1=3 $lvl2=3
CA83 A:16 S0:46 1.10494e-18 $lvl1=2 $lvl2=2
CA84 A:10 S0:27 8.99201e-19 $lvl1=3 $lvl2=3
CA85 A:8 S0:42 7.98769e-19 $lvl1=3 $lvl2=2
CA86 A:8 S0:45 7.19026e-19 $lvl1=3 $lvl2=2
CA87 A:16 S0:42 6.84144e-19 $lvl1=2 $lvl2=2
CA88 A:19 S0:59 6.18205e-19 $lvl1=1 $lvl2=1
CA89 A:14 S0:59 5.11613e-19 $lvl1=2 $lvl2=1
CA90 A:17 S0:25 4.85657e-19 $lvl1=1 $lvl2=3
CA91 A:10 S0:55 4.79712e-19 $lvl1=3 $lvl2=2
CA92 A:17 S0:32 4.45309e-19 $lvl1=1 $lvl2=3
CA93 A:10 S0:22 4.37542e-19 $lvl1=3 $lvl2=3
CA94 A:10 S0:57 4.37069e-19 $lvl1=3 $lvl2=2
CA95 A:17 S0:46 3.4647e-19 $lvl1=1 $lvl2=2
CA96 A:19 S0:27 3.28646e-19 $lvl1=1 $lvl2=3
CA97 A:10 S0:46 3.05618e-19 $lvl1=3 $lvl2=2
CA98 A:12 S0:35 2.95574e-19 $lvl1=3 $lvl2=3
CA99 A:19 S0:58 2.77881e-19 $lvl1=1 $lvl2=1
CA100 A:10 S0:30 2.64048e-19 $lvl1=3 $lvl2=3
CA101 A:15 S0:59 2.53954e-19 $lvl1=2 $lvl2=1
CA102 A:19 S0:45 2.2654e-19 $lvl1=1 $lvl2=2
CA103 A:17 S0:58 3.19611e-17 $lvl1=1 $lvl2=1
CA104 A:17 S0 2.4355e-17 $lvl1=1 $lvl2=1
CA105 A:15 S0:42 1.86549e-17 $lvl1=2 $lvl2=2
CA106 A:19 S0 2.44127e-17 $lvl1=1 $lvl2=1
CA107 A:10 S0:25 5.91926e-18 $lvl1=3 $lvl2=3
CA108 A:17 S0:45 9.0911e-18 $lvl1=1 $lvl2=2
CA109 A:17 S0:59 2.46187e-17 $lvl1=1 $lvl2=1
CA110 A:16 S0:45 1.80798e-17 $lvl1=2 $lvl2=2
CA111 A:10 S0:32 5.75276e-18 $lvl1=3 $lvl2=3
CA112 A:19 S0:61 2.06799e-17 $lvl1=1 $lvl2=1
CA113 A:17 S0:42 9.97766e-18 $lvl1=1 $lvl2=2
CA114 A:15 S0:45 5.8891e-18 $lvl1=2 $lvl2=2
CA115 A:10 S0:45 4.93652e-18 $lvl1=3 $lvl2=2
ReA1 A:17 A 0.310096 $metal1  $L=0.645 $W=0.260000 $SI_W=0.26 $TYPE=10 $DIR=1 $LLX=0.790000 $LLY=2.250000 $URX=1.050000 $URY=2.895000 $lvl=1
ReA2 A A:18 0.064904 $metal1  $L=0.135 $W=0.260000 $SI_W=0.26 $TYPE=10 $DIR=1 $LLX=0.805000 $LLY=2.115000 $URX=1.065000 $URY=2.250000 $lvl=1
ReA3 A:18 A:19 0.221154 $metal1  $L=0.46 $W=0.260000 $SI_W=0.26 $TYPE=10 $DIR=1 $LLX=0.790000 $LLY=1.655000 $URX=1.050000 $URY=2.115000 $lvl=1
RfA4 A:13 A:14 12.423529 $li  $L=0.165 $W=0.170000 $SI_W=0.17 $TYPE=10 $DIR=0 $LLX=0.920000 $LLY=2.030000 $URX=1.085000 $URY=2.200000 $lvl=2
RfA5 A:14 A:15 5.647059 $li  $L=0.075 $W=1000000 $SI_W=1000000 $TYPE=1,10 $DIR=0 $LLX=0.845000 $LLY=2.030000 $URX=0.920000 $URY=2.200000 $lvl=2
RfA6 A:15 A:16 24.094118 $li  $L=0.32 $W=0.170000 $SI_W=0.17 $TYPE=10 $DIR=0 $LLX=0.525000 $LLY=2.030000 $URX=0.845000 $URY=2.200000 $lvl=2
RgA7 A:8 Mmp2:g 173.519989 $poly  $L=0.54 $W=0.150000 $SI_W=0.15 $TYPE=10 $DIR=1 $LLX=0.830000 $LLY=3.355000 $URX=0.980000 $URY=3.895000 $lvl=3
RgA8 Mmp2:g A:9 345.477966 $poly  $L=1.075 $W=0.150000 $SI_W=0.15 $TYPE=10 $DIR=1 $LLX=0.830000 $LLY=2.279500 $URX=0.980000 $URY=3.354500 $lvl=3
RgA9 A:9 A:10 38.857975 $poly  $L=0.1645 $W=0.270000 $SI_W=0.27 $TYPE=10 $DIR=1 $LLX=0.710000 $LLY=2.114500 $URX=0.980000 $URY=2.279500 $lvl=3
RgA10 A:10 A:11 29.410927 $poly  $L=0.1645 $W=0.270000 $SI_W=0.27 $TYPE=10 $DIR=1 $LLX=0.710000 $LLY=1.950500 $URX=0.980000 $URY=2.114500 $lvl=3
RgA11 A:11 Mmn2:g 431.434631 $poly  $L=1.3425 $W=0.150000 $SI_W=0.15 $TYPE=10 $DIR=1 $LLX=0.830000 $LLY=0.607500 $URX=0.980000 $URY=1.950000 $lvl=3
RgA12 Mmn2:g A:12 116.483322 $poly  $L=0.3625 $W=0.150000 $SI_W=0.15 $TYPE=10 $DIR=1 $LLX=0.830000 $LLY=0.245000 $URX=0.980000 $URY=0.607500 $lvl=3
RjA13 A:14 A:18 152.000000 $mcon  $L=0.17 $W=0.17 $A=0.0289 $VC=0 $SAVL=0 $SAVC=0 $SI_A=0.0289 $COVER_DIR=0 $LLX=0.000000 $LLY=0.000000 $URX=0.170000 $URY=0.170000 $lvl=6
RiA14 A:10 A:15 15.000000 $licon  $L=0.17 $W=0.17 $A=0.0289 $VC=0 $SAVL=0 $SAVC=0 $SI_A=0.0289 $COVER_DIR=0 $LLX=0.000000 $LLY=0.000000 $URX=0.170000 $URY=0.170000 $lvl=7
*
*|NET S1 1.85251e-15
*|P (S1 X 0 4.1550 1.3250) // $llx=4.1550 $lly=1.3250 $urx=4.1550 $ury=1.3250 $lvl=1
*|I (Mmp10:g Mmp10 g X 0 5.2950 3.0150) // $llx=5.2950 $lly=3.0150 $urx=5.2950 $ury=3.0150 $lvl=3
*|I (Mmp1:g Mmp1 g X 0 4.3450 3.3550) // $llx=4.3450 $lly=3.3550 $urx=4.3450 $ury=3.3550 $lvl=3
*|I (Mmn11:g Mmn11 g X 0 5.7250 0.7750) // $llx=5.7250 $lly=0.7750 $urx=5.7250 $ury=0.7750 $lvl=3
*|I (Mmn1:g Mmn1 g X 0 4.3450 0.6075) // $llx=4.3450 $lly=0.6075 $urx=4.3450 $ury=0.6075 $lvl=3
*|S (S1:15 5.2950 3.8950) // $llx=5.2950 $lly=3.8950 $urx=5.2950 $ury=3.8950 $lvl=3
*|S (S1:16 5.2950 1.8750) // $llx=5.2950 $lly=1.8750 $urx=5.2950 $ury=1.8750 $lvl=3
*|S (S1:17 4.3450 1.8750) // $llx=4.3450 $lly=1.8750 $urx=4.3450 $ury=1.8750 $lvl=3
*|S (S1:18 4.3450 1.7750) // $llx=4.3450 $lly=1.7750 $urx=4.3450 $ury=1.7750 $lvl=3
*|S (S1:19 4.3450 1.6100) // $llx=4.3450 $lly=1.6100 $urx=4.3450 $ury=1.6100 $lvl=3
*|S (S1:20 4.3450 1.0950) // $llx=4.3450 $lly=1.0950 $urx=4.3450 $ury=1.0950 $lvl=3
*|S (S1:21 4.3450 0.9300) // $llx=4.3450 $lly=0.9300 $urx=4.3450 $ury=0.9300 $lvl=3
*|S (S1:22 5.2950 1.6950) // $llx=5.2950 $lly=1.6950 $urx=5.2950 $ury=1.6950 $lvl=3
*|S (S1:23 5.7250 1.6950) // $llx=5.7250 $lly=1.6950 $urx=5.7250 $ury=1.6950 $lvl=3
*|S (S1:24 5.7250 0.2450) // $llx=5.7250 $lly=0.2450 $urx=5.7250 $ury=0.2450 $lvl=3
*|S (S1:25 4.3450 1.9395) // $llx=4.3450 $lly=1.9395 $urx=4.3450 $ury=1.9395 $lvl=3
*|S (S1:26 4.3750 1.9595) // $llx=4.3750 $lly=1.9595 $urx=4.3750 $ury=1.9595 $lvl=3
*|S (S1:27 4.3450 3.8950) // $llx=4.3450 $lly=3.8950 $urx=4.3450 $ury=3.8950 $lvl=3
*|S (S1:28 4.3450 0.2450) // $llx=4.3450 $lly=0.2450 $urx=4.3450 $ury=0.2450 $lvl=3
*|S (S1:29 4.5100 1.7750) // $llx=4.5100 $lly=1.7750 $urx=4.5100 $ury=1.7750 $lvl=2
*|S (S1:30 4.3450 1.7750) // $llx=4.3450 $lly=1.7750 $urx=4.3450 $ury=1.7750 $lvl=2
*|S (S1:31 4.1300 1.7750) // $llx=4.1300 $lly=1.7750 $urx=4.1300 $ury=1.7750 $lvl=2
*|S (S1:32 3.9650 1.7750) // $llx=3.9650 $lly=1.7750 $urx=3.9650 $ury=1.7750 $lvl=2
*|S (S1:33 4.5100 1.0950) // $llx=4.5100 $lly=1.0950 $urx=4.5100 $ury=1.0950 $lvl=2
*|S (S1:34 4.3450 1.0950) // $llx=4.3450 $lly=1.0950 $urx=4.3450 $ury=1.0950 $lvl=2
*|S (S1:35 4.1400 1.0950) // $llx=4.1400 $lly=1.0950 $urx=4.1400 $ury=1.0950 $lvl=2
*|S (S1:36 3.9650 1.0950) // $llx=3.9650 $lly=1.0950 $urx=3.9650 $ury=1.0950 $lvl=2
*|S (S1:37 4.1400 1.9700) // $llx=4.1400 $lly=1.9700 $urx=4.1400 $ury=1.9700 $lvl=1
*|S (S1:38 4.1300 1.7750) // $llx=4.1300 $lly=1.7750 $urx=4.1300 $ury=1.7750 $lvl=1
*|S (S1:39 4.1400 1.0950) // $llx=4.1400 $lly=1.0950 $urx=4.1400 $ury=1.0950 $lvl=1
*|S (S1:40 4.1400 0.7300) // $llx=4.1400 $lly=0.7300 $urx=4.1400 $ury=0.7300 $lvl=1
CF1 Mmn1:g VSS! 1.34624e-18 $lvl=3
CF2 S1:37 VSS! 1.39492e-17 $lvl=1
CF3 S1:15 VSS! 5.51794e-18 $lvl=3
CF4 S1:27 VSS! 1.93896e-18 $lvl=3
CF5 S1:24 VSS! 5.70595e-18 $lvl=3
CF6 S1:34 VSS! 2.32529e-18 $lvl=2
CF7 S1:36 VSS! 4.27183e-18 $lvl=2
CF8 S1:30 VSS! 3.72588e-18 $lvl=2
CF9 S1:32 VSS! 9.07018e-18 $lvl=2
CF10 S1:31 VSS! 4.64542e-18 $lvl=2
CF11 S1:35 VSS! 5.44825e-18 $lvl=2
CF12 S1:20 VSS! 1.71915e-17 $lvl=3
CF13 S1:18 VSS! 2.2187e-17 $lvl=3
CF14 S1 VSS! 1.3212e-17 $lvl=1
CF15 S1:35 n9:3 1.32141e-18 $lvl1=2 $lvl2=2
CF16 S1:20 n9:3 6.21738e-19 $lvl1=3 $lvl2=2
CF17 S1 n9:4 5.45205e-19 $lvl1=1 $lvl2=2
CF18 Mmn1:g n9:3 4.03187e-19 $lvl1=3 $lvl2=2
CF19 S1:20 n9 1.99708e-19 $lvl1=3 $lvl2=2
CF20 S1:36 n9:3 1.50679e-18 $lvl1=2 $lvl2=2
CF21 S1:36 n9 2.34247e-18 $lvl1=2 $lvl2=2
CF22 S1:35 n9 1.35812e-18 $lvl1=2 $lvl2=2
CF23 S1 n9:3 3.00348e-18 $lvl1=1 $lvl2=2
CF24 S1 n9 1.52508e-18 $lvl1=1 $lvl2=2
CF25 S1:24 n2:47 1.2737e-16 $lvl1=3 $lvl2=2
CF26 S1:15 n2:42 2.50498e-16 $lvl1=3 $lvl2=2
CF27 S1:34 S1b:23 8.95589e-18 $lvl1=2 $lvl2=2
CF28 S1:20 S1b:23 8.40984e-18 $lvl1=3 $lvl2=2
CF29 S1:37 S1b:33 7.5902e-18 $lvl1=1 $lvl2=1
CF30 S1:18 S1b:32 7.27859e-18 $lvl1=3 $lvl2=2
CF31 S1:20 S1b:32 7.01761e-18 $lvl1=3 $lvl2=2
CF32 S1:30 S1b:35 6.22536e-18 $lvl1=2 $lvl2=1
CF33 S1:18 S1b:11 4.60865e-18 $lvl1=3 $lvl2=3
CF34 S1:20 S1b:11 4.54981e-18 $lvl1=3 $lvl2=3
CF35 S1:30 S1b:31 3.64548e-18 $lvl1=2 $lvl2=2
CF36 S1:31 S1b:35 3.55478e-18 $lvl1=2 $lvl2=1
CF37 S1:34 S1b:35 3.48897e-18 $lvl1=2 $lvl2=1
CF38 S1:34 S1b:31 3.10358e-18 $lvl1=2 $lvl2=2
CF39 S1:35 S1b:32 2.96407e-18 $lvl1=2 $lvl2=2
CF40 S1:34 S1b:37 2.76886e-18 $lvl1=2 $lvl2=1
CF41 S1 S1b:24 2.63596e-18 $lvl1=1 $lvl2=2
CF42 S1:24 S1b:16 2.62077e-18 $lvl1=3 $lvl2=3
CF43 S1:34 S1b:24 2.14935e-18 $lvl1=2 $lvl2=2
CF44 S1 S1b:31 1.9511e-18 $lvl1=1 $lvl2=2
CF45 S1:30 S1b:30 1.85278e-18 $lvl1=2 $lvl2=2
CF46 S1:20 Mmn1:d 1.8327e-18 $lvl1=3 $lvl2=4
CF47 S1:34 S1b:11 1.74603e-18 $lvl1=2 $lvl2=3
CF48 S1:35 S1b:31 1.72107e-18 $lvl1=2 $lvl2=2
CF49 S1:30 S1b:11 1.70403e-18 $lvl1=2 $lvl2=3
CF50 S1:32 S1b:32 1.68722e-18 $lvl1=2 $lvl2=2
CF51 S1:35 S1b:37 1.68669e-18 $lvl1=2 $lvl2=1
CF52 S1:27 S1b:22 1.57913e-18 $lvl1=3 $lvl2=2
CF53 S1:35 S1b:35 1.55371e-18 $lvl1=2 $lvl2=1
CF54 S1:24 S1b:29 1.54232e-18 $lvl1=3 $lvl2=2
CF55 S1:34 S1b:30 1.52416e-18 $lvl1=2 $lvl2=2
CF56 S1:37 S1b:31 1.36843e-18 $lvl1=1 $lvl2=2
CF57 S1:31 S1b:31 1.21747e-18 $lvl1=2 $lvl2=2
CF58 S1:35 S1b:24 1.18807e-18 $lvl1=2 $lvl2=2
CF59 S1:35 S1b:23 1.14162e-18 $lvl1=2 $lvl2=2
CF60 S1 S1b:32 9.40446e-19 $lvl1=1 $lvl2=2
CF61 S1:31 S1b:32 8.83042e-19 $lvl1=2 $lvl2=2
CF62 S1:24 S1b:30 8.50445e-19 $lvl1=3 $lvl2=2
CF63 S1:18 S1b:30 8.28877e-19 $lvl1=3 $lvl2=2
CF64 S1:37 S1b:32 6.99549e-19 $lvl1=1 $lvl2=2
CF65 S1:15 S1b:11 6.75179e-19 $lvl1=3 $lvl2=3
CF66 S1:36 S1b:32 6.44039e-19 $lvl1=2 $lvl2=2
CF67 S1 S1b:23 6.35932e-19 $lvl1=1 $lvl2=2
CF68 S1 S1b:33 6.17586e-19 $lvl1=1 $lvl2=1
CF69 S1:37 S1b:37 5.70572e-19 $lvl1=1 $lvl2=1
CF70 S1:15 S1b:18 5.51492e-19 $lvl1=3 $lvl2=2
CF71 Mmn1:g S1b:27 5.2754e-19 $lvl1=3 $lvl2=2
CF72 S1:15 S1b:30 4.47778e-19 $lvl1=3 $lvl2=2
CF73 Mmn1:g S1b:11 4.44058e-19 $lvl1=3 $lvl2=3
CF74 S1:34 S1b:32 1.17922e-17 $lvl1=2 $lvl2=2
CF75 S1:37 S1b:35 5.74907e-17 $lvl1=1 $lvl2=1
CF76 Mmn1:g S1b:23 6.78813e-17 $lvl1=3 $lvl2=2
CF77 S1:27 S1b:18 1.33098e-16 $lvl1=3 $lvl2=2
CF78 S1:30 S1b:32 1.21405e-17 $lvl1=2 $lvl2=2
CF79 S1 S1b:35 4.44009e-17 $lvl1=1 $lvl2=1
CF80 S1 S1b:37 4.53887e-17 $lvl1=1 $lvl2=1
CF81 S1:37 n1:20 7.47574e-18 $lvl1=1 $lvl2=1
CF82 S1:37 n1:22 2.16994e-18 $lvl1=1 $lvl2=1
CF83 S1:35 n1:20 1.52215e-18 $lvl1=2 $lvl2=1
CF84 S1:32 n1:20 1.29351e-18 $lvl1=2 $lvl2=1
CF85 S1:36 n1:20 1.09252e-18 $lvl1=2 $lvl2=1
CF86 S1 n1:22 1.02018e-18 $lvl1=1 $lvl2=1
CF87 S1:24 n1:15 1.30267e-16 $lvl1=3 $lvl2=2
CF88 S1 n1:20 2.17321e-17 $lvl1=1 $lvl2=1
CF89 S1:31 n0:14 6.95979e-18 $lvl1=2 $lvl2=2
CF90 S1:37 n0:14 6.46023e-18 $lvl1=1 $lvl2=2
CF91 S1:20 n0:20 2.95614e-18 $lvl1=3 $lvl2=2
CF92 S1:34 n0:20 2.65979e-18 $lvl1=2 $lvl2=2
CF93 S1:15 n0:14 2.25006e-18 $lvl1=3 $lvl2=2
CF94 S1:27 n0:10 1.75297e-18 $lvl1=3 $lvl2=2
CF95 S1 n0:29 1.54136e-18 $lvl1=1 $lvl2=1
CF96 S1:18 n0:10 1.37001e-18 $lvl1=3 $lvl2=2
CF97 S1:37 n0:29 1.21925e-18 $lvl1=1 $lvl2=1
CF98 S1:37 n0:28 1.03285e-18 $lvl1=1 $lvl2=1
CF99 S1:34 n0:18 9.68558e-19 $lvl1=2 $lvl2=2
CF100 S1:20 Mmn10:s 7.72238e-19 $lvl1=3 $lvl2=4
CF101 S1:20 n0:14 7.14447e-19 $lvl1=3 $lvl2=2
CF102 S1 n0:14 6.62906e-19 $lvl1=1 $lvl2=2
CF103 Mmn1:g n0:20 6.11189e-19 $lvl1=3 $lvl2=2
CF104 S1:30 n0:14 2.11051e-17 $lvl1=2 $lvl2=2
CF105 S1:32 n0:14 2.51259e-17 $lvl1=2 $lvl2=2
CF106 S1:18 n0:14 1.61916e-17 $lvl1=3 $lvl2=2
CF107 S1:15 n0:10 2.47712e-16 $lvl1=3 $lvl2=2
CF108 S1:20 VSS!:25 7.92685e-18 $lvl1=3 $lvl2=2
CF109 S1 VSS!:25 7.80748e-18 $lvl1=1 $lvl2=2
CF110 Mmn1:g VSS!:13 7.28128e-18 $lvl1=3 $lvl2=2
CF111 S1:24 VSS!:9 6.87808e-18 $lvl1=3 $lvl2=2
CF112 S1:36 VSS!:25 4.28336e-18 $lvl1=2 $lvl2=2
CF113 S1:34 VSS!:25 3.7927e-18 $lvl1=2 $lvl2=2
CF114 Mmn1:g VSS!:25 6.56932e-17 $lvl1=3 $lvl2=2
CF115 S1 VSS!:34 1.9657e-17 $lvl1=1 $lvl2=1
CF116 S1:35 VSS!:25 1.24449e-17 $lvl1=2 $lvl2=2
CF117 S1:27 VDD!:6 9.08274e-18 $lvl1=3 $lvl2=2
CF118 S1 VDD! 4.6723e-18 $lvl1=1 $lvl2=1
CF119 S1:18 VDD! 4.65626e-18 $lvl1=3 $lvl2=1
CF120 S1:15 VDD!:17 4.14834e-18 $lvl1=3 $lvl2=2
CF121 S1:15 VDD!:6 3.53908e-18 $lvl1=3 $lvl2=2
CF122 S1:27 VDD!:16 1.32899e-16 $lvl1=3 $lvl2=2
ReF105 S1:37 S1:38 0.093750 $metal1  $L=0.195 $W=0.260000 $SI_W=0.26 $TYPE=10 $DIR=1 $LLX=4.010000 $LLY=1.775000 $URX=4.270000 $URY=1.970000 $lvl=1
ReF106 S1:38 S1 0.216346 $metal1  $L=0.45 $W=0.260000 $SI_W=0.26 $TYPE=10 $DIR=1 $LLX=4.010000 $LLY=1.325000 $URX=4.270000 $URY=1.775000 $lvl=1
ReF107 S1 S1:39 0.110577 $metal1  $L=0.23 $W=0.260000 $SI_W=0.26 $TYPE=10 $DIR=1 $LLX=4.025000 $LLY=1.095000 $URX=4.285000 $URY=1.325000 $lvl=1
ReF108 S1:39 S1:40 0.175481 $metal1  $L=0.365 $W=0.260000 $SI_W=0.26 $TYPE=10 $DIR=1 $LLX=4.010000 $LLY=0.730000 $URX=4.270000 $URY=1.095000 $lvl=1
RfF109 S1:29 S1:30 12.423529 $li  $L=0.165 $W=0.170000 $SI_W=0.17 $TYPE=10 $DIR=0 $LLX=4.345000 $LLY=1.690000 $URX=4.510000 $URY=1.860000 $lvl=2
RfF110 S1:30 S1:31 16.188236 $li  $L=0.215 $W=0.170000 $SI_W=0.17 $TYPE=10 $DIR=0 $LLX=4.130000 $LLY=1.690000 $URX=4.345000 $URY=1.860000 $lvl=2
RfF111 S1:31 S1:32 12.423529 $li  $L=0.165 $W=0.170000 $SI_W=0.17 $TYPE=10 $DIR=0 $LLX=3.965000 $LLY=1.690000 $URX=4.130000 $URY=1.860000 $lvl=2
RfF112 S1:33 S1:34 12.423529 $li  $L=0.165 $W=0.170000 $SI_W=0.17 $TYPE=10 $DIR=0 $LLX=4.345000 $LLY=1.010000 $URX=4.510000 $URY=1.180000 $lvl=2
RfF113 S1:34 S1:35 15.435294 $li  $L=0.205 $W=0.170000 $SI_W=0.17 $TYPE=10 $DIR=0 $LLX=4.140000 $LLY=1.010000 $URX=4.345000 $URY=1.180000 $lvl=2
RfF114 S1:35 S1:36 13.176471 $li  $L=0.175 $W=0.170000 $SI_W=0.17 $TYPE=10 $DIR=0 $LLX=3.965000 $LLY=1.010000 $URX=4.140000 $URY=1.180000 $lvl=2
RgF115 S1:15 Mmp10:g 282.773346 $poly  $L=0.88 $W=0.150000 $SI_W=0.15 $TYPE=10 $DIR=1 $LLX=5.220000 $LLY=3.015000 $URX=5.370000 $URY=3.895000 $lvl=3
RgF116 Mmp10:g S1:16 366.239685 $poly  $L=1.13975 $W=0.150000 $SI_W=0.15 $TYPE=10 $DIR=1 $LLX=5.220000 $LLY=1.875000 $URX=5.370000 $URY=3.015000 $lvl=3
RgF117 S1:16 S1:17 307.322021 $poly  $L=0.95025 $W=0.150000 $SI_W=0.15 $TYPE=10 $DIR=0 $LLX=4.345000 $LLY=1.810000 $URX=5.295000 $URY=1.960000 $lvl=3
RgF118 S1:17 S1:18 17.851852 $poly  $L=0.1 $W=0.270000 $SI_W=0.27 $TYPE=10 $DIR=1 $LLX=4.210000 $LLY=1.775000 $URX=4.480000 $URY=1.875000 $lvl=3
RgF119 S1:18 S1:19 29.410925 $poly  $L=0.1645 $W=0.270000 $SI_W=0.27 $TYPE=10 $DIR=1 $LLX=4.210000 $LLY=1.610500 $URX=4.480000 $URY=1.775000 $lvl=3
RgF120 S1:19 S1:20 146.690369 $poly  $L=0.515 $W=0.150000 $SI_W=0.15 $TYPE=10 $DIR=1 $LLX=4.270000 $LLY=1.095000 $URX=4.420000 $URY=1.610000 $lvl=3
RgF121 S1:20 S1:21 34.134449 $poly  $L=0.1645 $W=0.270000 $SI_W=0.27 $TYPE=10 $DIR=1 $LLX=4.210000 $LLY=0.930500 $URX=4.480000 $URY=1.095000 $lvl=3
RgF122 S1:21 Mmn1:g 103.674629 $poly  $L=0.3225 $W=0.150000 $SI_W=0.15 $TYPE=10 $DIR=1 $LLX=4.270000 $LLY=0.607500 $URX=4.420000 $URY=0.930000 $lvl=3
RgF123 S1:16 S1:22 57.840000 $poly  $L=0.18 $W=0.150000 $SI_W=0.15 $TYPE=10 $DIR=1 $LLX=5.220000 $LLY=1.695000 $URX=5.370000 $URY=1.875000 $lvl=3
RgF124 S1:22 S1:23 138.173340 $poly  $L=0.43 $W=0.150000 $SI_W=0.15 $TYPE=10 $DIR=0 $LLX=5.295000 $LLY=1.620000 $URX=5.725000 $URY=1.770000 $lvl=3
RgF125 S1:23 Mmn11:g 295.707001 $poly  $L=0.92025 $W=0.150000 $SI_W=0.15 $TYPE=10 $DIR=1 $LLX=5.650000 $LLY=0.775000 $URX=5.800000 $URY=1.695000 $lvl=3
RgF126 Mmn11:g S1:24 170.306671 $poly  $L=0.53 $W=0.150000 $SI_W=0.15 $TYPE=10 $DIR=1 $LLX=5.650000 $LLY=0.245000 $URX=5.800000 $URY=0.775000 $lvl=3
RgF127 S1:17 S1:25 11.608350 $poly  $L=0.0645 $W=0.270000 $SI_W=0.27 $TYPE=10 $DIR=1 $LLX=4.210000 $LLY=1.875000 $URX=4.480000 $URY=1.939500 $lvl=3
RgF128 S1:25 S1:26 4.577725 $poly  $L=0.0195 $W=0.210000 $SI_W=0.21 $TYPE=10 $DIR=1 $LLX=4.270000 $LLY=1.940000 $URX=4.480000 $URY=1.959500 $lvl=3
RgF129 S1:26 Mmp1:g 448.317352 $poly  $L=1.395 $W=0.150000 $SI_W=0.15 $TYPE=10 $DIR=1 $LLX=4.270000 $LLY=1.959500 $URX=4.420000 $URY=3.354500 $lvl=3
RgF130 Mmp1:g S1:27 173.519989 $poly  $L=0.54 $W=0.150000 $SI_W=0.15 $TYPE=10 $DIR=1 $LLX=4.270000 $LLY=3.355000 $URX=4.420000 $URY=3.895000 $lvl=3
RgF131 Mmn1:g S1:28 116.483322 $poly  $L=0.3625 $W=0.150000 $SI_W=0.15 $TYPE=10 $DIR=1 $LLX=4.270000 $LLY=0.245000 $URX=4.420000 $URY=0.607500 $lvl=3
RjF132 S1:31 S1:38 152.000000 $mcon  $L=0.17 $W=0.17 $A=0.0289 $VC=0 $SAVL=0 $SAVC=0 $SI_A=0.0289 $COVER_DIR=0 $LLX=0.000000 $LLY=0.000000 $URX=0.170000 $URY=0.170000 $lvl=6
RjF133 S1:35 S1:39 152.000000 $mcon  $L=0.17 $W=0.17 $A=0.0289 $VC=0 $SAVL=0 $SAVC=0 $SI_A=0.0289 $COVER_DIR=0 $LLX=0.000000 $LLY=0.000000 $URX=0.170000 $URY=0.170000 $lvl=6
RiF134 S1:18 S1:30 15.000000 $licon  $L=0.17 $W=0.17 $A=0.0289 $VC=0 $SAVL=0 $SAVC=0 $SI_A=0.0289 $COVER_DIR=0 $LLX=0.000000 $LLY=0.000000 $URX=0.170000 $URY=0.170000 $lvl=7
RiF135 S1:20 S1:34 15.000000 $licon  $L=0.17 $W=0.17 $A=0.0289 $VC=0 $SAVL=0 $SAVC=0 $SI_A=0.0289 $COVER_DIR=0 $LLX=0.000000 $LLY=0.000000 $URX=0.170000 $URY=0.170000 $lvl=7
*
*|NET n2 5.51632e-15
*|I (Mmp11:s Mmp11 s X 0 5.6495 3.0150) // $llx=5.6495 $lly=3.0150 $urx=5.6495 $ury=3.0150 $lvl=4
*|I (Mmp10:d Mmp10 d X 0 5.3705 3.0150) // $llx=5.3705 $lly=3.0150 $urx=5.3705 $ury=3.0150 $lvl=4
*|I (Mmp12@3:g Mmp12@3 g X 0 6.6750 3.0150) // $llx=6.6750 $lly=3.0150 $urx=6.6750 $ury=3.0150 $lvl=3
*|I (Mmp12@1:g Mmp12@1 g X 0 7.1050 3.0150) // $llx=7.1050 $lly=3.0150 $urx=7.1050 $ury=3.0150 $lvl=3
*|I (Mmp12@2:g Mmp12@2 g X 0 7.5350 3.0150) // $llx=7.5350 $lly=3.0150 $urx=7.5350 $ury=3.0150 $lvl=3
*|I (Mmp12:g Mmp12 g X 0 7.9650 3.0150) // $llx=7.9650 $lly=3.0150 $urx=7.9650 $ury=3.0150 $lvl=3
*|I (Mmn12:g Mmn12 g X 0 6.6750 0.7750) // $llx=6.6750 $lly=0.7750 $urx=6.6750 $ury=0.7750 $lvl=3
*|I (Mmn12@2:g Mmn12@2 g X 0 7.1050 0.7750) // $llx=7.1050 $lly=0.7750 $urx=7.1050 $ury=0.7750 $lvl=3
*|I (Mmn12@3:g Mmn12@3 g X 0 7.5350 0.7750) // $llx=7.5350 $lly=0.7750 $urx=7.5350 $ury=0.7750 $lvl=3
*|I (Mmn12@1:g Mmn12@1 g X 0 7.9650 0.7750) // $llx=7.9650 $lly=0.7750 $urx=7.9650 $ury=0.7750 $lvl=3
*|I (Mmn11:d Mmn11 d X 0 5.6495 0.7750) // $llx=5.6495 $lly=0.7750 $urx=5.6495 $ury=0.7750 $lvl=4
*|I (Mmn10:d Mmn10 d X 0 5.3705 0.7750) // $llx=5.3705 $lly=0.7750 $urx=5.3705 $ury=0.7750 $lvl=4
*|S (n2 6.6750 0.7750) // $llx=6.6750 $lly=0.7750 $urx=6.6750 $ury=0.7750 $lvl=3
*|S (n2:29 7.9650 3.8950) // $llx=7.9650 $lly=3.8950 $urx=7.9650 $ury=3.8950 $lvl=3
*|S (n2:30 7.9650 1.7750) // $llx=7.9650 $lly=1.7750 $urx=7.9650 $ury=1.7750 $lvl=3
*|S (n2:31 7.5350 1.7750) // $llx=7.5350 $lly=1.7750 $urx=7.5350 $ury=1.7750 $lvl=3
*|S (n2:32 7.3200 1.7750) // $llx=7.3200 $lly=1.7750 $urx=7.3200 $ury=1.7750 $lvl=3
*|S (n2:33 7.1050 1.7750) // $llx=7.1050 $lly=1.7750 $urx=7.1050 $ury=1.7750 $lvl=3
*|S (n2:34 6.6750 1.7750) // $llx=6.6750 $lly=1.7750 $urx=6.6750 $ury=1.7750 $lvl=3
*|S (n2:35 7.9650 0.2450) // $llx=7.9650 $lly=0.2450 $urx=7.9650 $ury=0.2450 $lvl=3
*|S (n2:36 7.5350 0.2450) // $llx=7.5350 $lly=0.2450 $urx=7.5350 $ury=0.2450 $lvl=3
*|S (n2:37 7.5350 3.8950) // $llx=7.5350 $lly=3.8950 $urx=7.5350 $ury=3.8950 $lvl=3
*|S (n2:38 7.1050 0.2450) // $llx=7.1050 $lly=0.2450 $urx=7.1050 $ury=0.2450 $lvl=3
*|S (n2:39 7.1050 3.8950) // $llx=7.1050 $lly=3.8950 $urx=7.1050 $ury=3.8950 $lvl=3
*|S (n2:40 6.6750 3.8950) // $llx=6.6750 $lly=3.8950 $urx=6.6750 $ury=3.8950 $lvl=3
*|S (n2:41 6.6750 0.2450) // $llx=6.6750 $lly=0.2450 $urx=6.6750 $ury=0.2450 $lvl=3