*
*|DSPF 1.5
*
*|DATE "Wed Jan  8 21:15:33 2025"
*|VENDOR "Cadence Design Systems"
*|PROGRAM "Cadence Quantus Extraction"
*|VERSION "22.1.0-p089 Linux 64 bit - (Thu Jan 19 11:47:08 PST 2023)"
*|DESIGN MX4X1_HS
*|DIVIDER /
*|DELIMITER :
*|DeviceFingerDelim "@"
*|BUSBIT []
*|GLOBAL_TEMPERATURE 25
*|OPERATING_TEMPERATURE 25

** *VIA_COVERAGE_CODES
** *index FF FS FP FU SF SS SP SU PF PS PP PU UF US UP UU X_by_Y
** * "FF" stands for Full landing and Full coverage
** *0 0 0 0 0 0 0 0 0 0 0 0 0 0 0 0 0
** *1 0 0 0 0 0 0 0 0 0 0 0 0 0 0 0 1 1x1
** *2 0 0 0 0 0 0 0 0 0 0 0 0 0 0 1 0 1x1
** *3 0 0 0 0 0 0 0 0 0 0 0 0 0 1 0 0 1x1
** *4 0 0 0 0 0 0 0 0 0 0 0 0 1 0 0 0 1x1
** *5 0 0 0 0 0 0 0 0 0 0 0 1 0 0 0 0 1x1
** *6 0 0 0 0 0 0 0 0 0 0 1 0 0 0 0 0 1x1
** *7 0 0 0 0 0 0 0 0 0 1 0 0 0 0 0 0 1x1
** *8 0 0 0 0 0 0 0 0 1 0 0 0 0 0 0 0 1x1
** *9 0 0 0 0 0 0 0 1 0 0 0 0 0 0 0 0 1x1
** *10 0 0 0 0 0 0 1 0 0 0 0 0 0 0 0 0 1x1
** *11 0 0 0 0 0 1 0 0 0 0 0 0 0 0 0 0 1x1
** *12 0 0 0 0 1 0 0 0 0 0 0 0 0 0 0 0 1x1
** *13 0 0 0 1 0 0 0 0 0 0 0 0 0 0 0 0 1x1
** *14 0 0 1 0 0 0 0 0 0 0 0 0 0 0 0 0 1x1
** *15 0 1 0 0 0 0 0 0 0 0 0 0 0 0 0 0 1x1
** *16 1 0 0 0 0 0 0 0 0 0 0 0 0 0 0 0 1x1

** *RESISTOR_TYPES
** *1 SHORTING_ELEMENT
** *2 PRES_NG
** *3 PRES_PG
** *4 PRES_NF
** *5 PRES_PF
** *6 TCN_NDIFF
** *7 TCN_PDIFF
** *8 TCN_NFIELD
** *9 TCN_PFIELD
** *10 QUALITY_EXTRACTED
** *11 GCNLAND
** *12 TCNLAND
** *13 DUMMY
** *14 RSD
** *15 BRIDGE

** *RESISTOR_CURRENT_DIRECTION
** *0 HORIZONTAL
** *1 VERTICAL
** *2 45 DEGREE

** QRC_TECH_DIR /vols/wfo_devel/projects/reference_SKY130/tech/sky130_release_0.0.4/quantus/extraction/typical 
** HIERARCHICAL_SPLIT_PINS_DELIMITER '%'
** caps2d version: 10
*
.SUBCKT  MX4X1_HS A B C D S0 S1 Y
*
*Net Section
*
*|GROUND_NET VSS!
*
*LAYER_MAP
*0 none
*1 metal1
*2 li
*3 poly
*4 diff
*5 licon_diff
*6 mcon
*7 licon
*8 FOX

*|NET S1 1.47035e-15
*|P (S1 X 0 4.1550 1.4900) // $llx=4.1550 $lly=1.4900 $urx=4.1550 $ury=1.4900 $lvl=1
*|I (Mmp10:g Mmp10 g X 0 5.2950 3.3550) // $llx=5.2950 $lly=3.3550 $urx=5.2950 $ury=3.3550 $lvl=3
*|I (Mmp1:g Mmp1 g X 0 4.3450 3.3550) // $llx=4.3450 $lly=3.3550 $urx=4.3450 $ury=3.3550 $lvl=3
*|I (Mmn1:g Mmn1 g X 0 4.3450 0.6075) // $llx=4.3450 $lly=0.6075 $urx=4.3450 $ury=0.6075 $lvl=3
*|I (Mmn11:g Mmn11 g X 0 5.7250 0.6075) // $llx=5.7250 $lly=0.6075 $urx=5.7250 $ury=0.6075 $lvl=3
*|S (S1:15 5.2950 3.8950) // $llx=5.2950 $lly=3.8950 $urx=5.2950 $ury=3.8950 $lvl=3
*|S (S1:16 5.2950 1.8925) // $llx=5.2950 $lly=1.8925 $urx=5.2950 $ury=1.8925 $lvl=3
*|S (S1:17 4.3450 1.8950) // $llx=4.3450 $lly=1.8950 $urx=4.3450 $ury=1.8950 $lvl=3
*|S (S1:18 4.3450 1.7750) // $llx=4.3450 $lly=1.7750 $urx=4.3450 $ury=1.7750 $lvl=3
*|S (S1:19 4.3450 1.6100) // $llx=4.3450 $lly=1.6100 $urx=4.3450 $ury=1.6100 $lvl=3
*|S (S1:20 4.3450 1.0950) // $llx=4.3450 $lly=1.0950 $urx=4.3450 $ury=1.0950 $lvl=3
*|S (S1:21 4.3450 0.9300) // $llx=4.3450 $lly=0.9300 $urx=4.3450 $ury=0.9300 $lvl=3
*|S (S1:22 5.7250 1.8900) // $llx=5.7250 $lly=1.8900 $urx=5.7250 $ury=1.8900 $lvl=3
*|S (S1:23 5.7250 0.2450) // $llx=5.7250 $lly=0.2450 $urx=5.7250 $ury=0.2450 $lvl=3
*|S (S1:24 4.3450 3.8950) // $llx=4.3450 $lly=3.8950 $urx=4.3450 $ury=3.8950 $lvl=3
*|S (S1:25 4.3450 0.2450) // $llx=4.3450 $lly=0.2450 $urx=4.3450 $ury=0.2450 $lvl=3
*|S (S1:26 4.5100 1.7750) // $llx=4.5100 $lly=1.7750 $urx=4.5100 $ury=1.7750 $lvl=2
*|S (S1:27 4.3450 1.7750) // $llx=4.3450 $lly=1.7750 $urx=4.3450 $ury=1.7750 $lvl=2
*|S (S1:28 4.1250 1.7750) // $llx=4.1250 $lly=1.7750 $urx=4.1250 $ury=1.7750 $lvl=2
*|S (S1:29 3.9600 1.7750) // $llx=3.9600 $lly=1.7750 $urx=3.9600 $ury=1.7750 $lvl=2
*|S (S1:30 4.5100 1.0950) // $llx=4.5100 $lly=1.0950 $urx=4.5100 $ury=1.0950 $lvl=2
*|S (S1:31 4.3450 1.0950) // $llx=4.3450 $lly=1.0950 $urx=4.3450 $ury=1.0950 $lvl=2
*|S (S1:32 4.1250 1.0950) // $llx=4.1250 $lly=1.0950 $urx=4.1250 $ury=1.0950 $lvl=2
*|S (S1:33 3.9600 1.0950) // $llx=3.9600 $lly=1.0950 $urx=3.9600 $ury=1.0950 $lvl=2
*|S (S1:34 4.1400 2.1350) // $llx=4.1400 $lly=2.1350 $urx=4.1400 $ury=2.1350 $lvl=1
*|S (S1:35 4.1250 1.7750) // $llx=4.1250 $lly=1.7750 $urx=4.1250 $ury=1.7750 $lvl=1
*|S (S1:36 4.1250 1.0950) // $llx=4.1250 $lly=1.0950 $urx=4.1250 $ury=1.0950 $lvl=1
*|S (S1:37 4.1400 0.8950) // $llx=4.1400 $lly=0.8950 $urx=4.1400 $ury=0.8950 $lvl=1
CF1 Mmn1:g VSS! 1.70162e-18 $lvl=3
CF2 S1:35 VSS! 6.42401e-18 $lvl=1
CF3 S1:34 VSS! 6.08097e-18 $lvl=1
CF4 S1:37 VSS! 8.81324e-18 $lvl=1
CF5 S1:15 VSS! 1.82277e-18 $lvl=3
CF6 S1:24 VSS! 1.67184e-18 $lvl=3
CF7 S1:23 VSS! 3.02975e-18 $lvl=3
CF8 S1:30 VSS! 1.97364e-18 $lvl=2
CF9 S1:33 VSS! 5.48788e-18 $lvl=2
CF10 S1:26 VSS! 3.16887e-18 $lvl=2
CF11 S1:29 VSS! 6.14067e-18 $lvl=2
CF12 S1:32 VSS! 3.21228e-18 $lvl=2
CF13 S1:28 VSS! 3.91664e-18 $lvl=2
CF14 S1:20 VSS! 1.73264e-17 $lvl=3
CF15 S1:18 VSS! 2.33708e-17 $lvl=3
CF16 S1 VSS! 5.17115e-18 $lvl=1
CF17 S1:37 n9 1.01747e-18 $lvl1=1 $lvl2=2
CF18 S1:32 n9 8.91186e-19 $lvl1=2 $lvl2=2
CF19 S1:32 n9:3 8.74006e-19 $lvl1=2 $lvl2=2
CF20 S1:20 n9:3 5.66516e-19 $lvl1=3 $lvl2=2
CF21 Mmn1:g n9:3 3.47825e-19 $lvl1=3 $lvl2=2
CF22 S1:37 n9:4 3.0739e-19 $lvl1=1 $lvl2=2
CF23 S1:20 n9 2.06654e-19 $lvl1=3 $lvl2=2
CF24 S1:20 Mmn9:s 1.93327e-19 $lvl1=3 $lvl2=4
CF25 S1:33 n9:3 2.0039e-18 $lvl1=2 $lvl2=2
CF26 S1:37 n9:3 1.70114e-18 $lvl1=1 $lvl2=2
CF27 S1:33 n9 2.7477e-18 $lvl1=2 $lvl2=2
CF28 S1:23 n2:16 6.6507e-17 $lvl1=3 $lvl2=2
CF29 S1:15 n2:12 1.2898e-16 $lvl1=3 $lvl2=2
CF30 S1:18 S1b:31 7.05414e-18 $lvl1=3 $lvl2=2
CF31 S1:20 S1b:31 6.55793e-18 $lvl1=3 $lvl2=2
CF32 S1:18 S1b:11 5.32647e-18 $lvl1=3 $lvl2=3
CF33 S1:20 S1b:11 4.79166e-18 $lvl1=3 $lvl2=3
CF34 S1:30 S1b:30 3.98998e-18 $lvl1=2 $lvl2=2
CF35 S1:26 S1b:30 3.75852e-18 $lvl1=2 $lvl2=2
CF36 S1:28 S1b:34 3.67298e-18 $lvl1=2 $lvl2=1
CF37 S1:30 S1b:34 3.18836e-18 $lvl1=2 $lvl2=1
CF38 S1:30 S1b:36 2.71678e-18 $lvl1=2 $lvl2=1
CF39 S1:26 S1b:29 2.1202e-18 $lvl1=2 $lvl2=2
CF40 S1:30 S1b:23 2.07687e-18 $lvl1=2 $lvl2=2
CF41 S1:26 S1b:11 1.88315e-18 $lvl1=2 $lvl2=3
CF42 S1:33 S1b:31 1.79947e-18 $lvl1=2 $lvl2=2
CF43 S1:32 S1b:31 1.79172e-18 $lvl1=2 $lvl2=2
CF44 S1:28 S1b:31 1.72932e-18 $lvl1=2 $lvl2=2
CF45 S1:32 S1b:36 1.7283e-18 $lvl1=2 $lvl2=1
CF46 S1:32 S1b:34 1.72335e-18 $lvl1=2 $lvl2=1
CF47 S1:29 S1b:31 1.72061e-18 $lvl1=2 $lvl2=2
CF48 S1:30 S1b:11 1.62815e-18 $lvl1=2 $lvl2=3
CF49 S1 S1b:30 1.57902e-18 $lvl1=1 $lvl2=2
CF50 S1:37 S1b:23 1.55885e-18 $lvl1=1 $lvl2=2
CF51 S1:20 Mmn1:d 1.54862e-18 $lvl1=3 $lvl2=4
CF52 S1:30 S1b:29 1.52793e-18 $lvl1=2 $lvl2=2
CF53 S1:32 S1b:30 1.50217e-18 $lvl1=2 $lvl2=2
CF54 S1:28 S1b:30 1.48143e-18 $lvl1=2 $lvl2=2
CF55 S1:15 S1b:18 1.27319e-18 $lvl1=3 $lvl2=2
CF56 S1:23 S1b:16 1.17602e-18 $lvl1=3 $lvl2=3
CF57 S1:32 S1b:23 1.16773e-18 $lvl1=2 $lvl2=2
CF58 S1:37 S1b:30 1.09465e-18 $lvl1=1 $lvl2=2
CF59 S1:18 S1b:29 1.05757e-18 $lvl1=3 $lvl2=2
CF60 S1 S1b:31 9.80359e-19 $lvl1=1 $lvl2=2
CF61 S1:32 S1b:22 8.6173e-19 $lvl1=2 $lvl2=2
CF62 S1:20 S1b:29 8.00584e-19 $lvl1=3 $lvl2=2
CF63 S1:18 S1b:34 7.91818e-19 $lvl1=3 $lvl2=1
CF64 S1:35 S1b:30 7.89168e-19 $lvl1=1 $lvl2=2
CF65 Mmn1:g S1b:26 7.00607e-19 $lvl1=3 $lvl2=2
CF66 S1:35 S1b:32 6.5327e-19 $lvl1=1 $lvl2=1
CF67 S1:23 S1b:27 6.26764e-19 $lvl1=3 $lvl2=2
CF68 S1 S1b:36 5.63516e-19 $lvl1=1 $lvl2=1
CF69 S1:37 S1b:31 5.45525e-19 $lvl1=1 $lvl2=2
CF70 S1:37 S1b:22 5.40314e-19 $lvl1=1 $lvl2=2
CF71 S1:23 S1b:29 4.75935e-19 $lvl1=3 $lvl2=2
CF72 S1:18 S1b:30 4.70322e-19 $lvl1=3 $lvl2=2
CF73 S1:29 S1b:34 4.26056e-19 $lvl1=2 $lvl2=1
CF74 S1:33 S1b:22 4.09477e-19 $lvl1=2 $lvl2=2
CF75 S1:20 S1b:30 4.01685e-19 $lvl1=3 $lvl2=2
CF76 S1:20 S1b:23 3.73283e-19 $lvl1=3 $lvl2=2
CF77 S1:29 S1b:30 3.19279e-19 $lvl1=2 $lvl2=2
CF78 S1:26 S1b:32 3.10321e-19 $lvl1=2 $lvl2=1
CF79 S1:33 S1b:30 3.03207e-19 $lvl1=2 $lvl2=2
CF80 S1:20 S1b:22 8.75171e-18 $lvl1=3 $lvl2=2
CF81 S1:26 S1b:34 7.45828e-18 $lvl1=2 $lvl2=1
CF82 S1 S1b:34 2.1775e-17 $lvl1=1 $lvl2=1
CF83 S1:34 S1b:34 3.33861e-17 $lvl1=1 $lvl2=1
CF84 S1:37 S1b:36 2.98663e-17 $lvl1=1 $lvl2=1
CF85 S1:26 S1b:31 1.08821e-17 $lvl1=2 $lvl2=2
CF86 S1:35 S1b:34 2.96362e-17 $lvl1=1 $lvl2=1
CF87 S1:37 S1b:34 3.12665e-17 $lvl1=1 $lvl2=1
CF88 S1:30 S1b:22 8.90185e-18 $lvl1=2 $lvl2=2
CF89 Mmn1:g S1b:22 6.63725e-17 $lvl1=3 $lvl2=2
CF90 S1:24 S1b:18 1.3215e-16 $lvl1=3 $lvl2=2
CF91 S1:34 S1b:32 9.36943e-18 $lvl1=1 $lvl2=1
CF92 S1:30 S1b:31 1.12175e-17 $lvl1=2 $lvl2=2
CF93 S1 n1:19 4.79804e-18 $lvl1=1 $lvl2=1
CF94 S1:35 n1:19 3.33808e-18 $lvl1=1 $lvl2=1
CF95 S1:32 n1:19 1.35437e-18 $lvl1=2 $lvl2=1
CF96 S1:29 n1:19 1.1687e-18 $lvl1=2 $lvl2=1
CF97 S1:34 n1:21 1.15359e-18 $lvl1=1 $lvl2=1
CF98 S1:33 n1:19 1.12785e-18 $lvl1=2 $lvl2=1
CF99 S1:15 n1:10 1.11365e-18 $lvl1=3 $lvl2=2
CF100 S1:34 n1:19 1.0098e-18 $lvl1=1 $lvl2=1
CF101 S1:28 n1:19 7.07436e-19 $lvl1=2 $lvl2=1
CF102 S1:34 n1:22 6.83094e-19 $lvl1=1 $lvl2=1
CF103 S1:35 n1:21 6.59326e-19 $lvl1=1 $lvl2=1
CF104 S1:37 n1:19 1.38457e-17 $lvl1=1 $lvl2=1
CF105 S1:23 n1:14 6.72175e-17 $lvl1=3 $lvl2=2
CF106 S1:28 n0:15 5.74673e-18 $lvl1=2 $lvl2=2
CF107 S1:30 n0:18 1.94875e-18 $lvl1=2 $lvl2=2
CF108 S1:20 n0:18 1.87504e-18 $lvl1=3 $lvl2=2
CF109 S1:37 n0:31 1.47836e-18 $lvl1=1 $lvl2=1
CF110 S1:30 n0:19 1.21502e-18 $lvl1=2 $lvl2=2
CF111 S1:15 n0:15 1.02943e-18 $lvl1=3 $lvl2=2
CF112 S1:24 n0:15 1.01229e-18 $lvl1=3 $lvl2=2
CF113 S1:24 n0:11 9.07542e-19 $lvl1=3 $lvl2=2
CF114 Mmn1:g n0:18 8.56171e-19 $lvl1=3 $lvl2=2
CF115 S1:34 n0:30 8.17852e-19 $lvl1=1 $lvl2=1
CF116 S1:26 n0:31 7.83314e-19 $lvl1=2 $lvl2=1
CF117 S1:26 n0:30 7.60843e-19 $lvl1=2 $lvl2=1
CF118 S1:35 n0:31 7.11513e-19 $lvl1=1 $lvl2=1
CF119 S1:23 n0:18 6.51089e-19 $lvl1=3 $lvl2=2
CF120 S1:34 n0:31 6.05954e-19 $lvl1=1 $lvl2=1
CF121 S1 n0:31 5.48701e-19 $lvl1=1 $lvl2=1
CF122 S1:35 n0:15 4.62602e-19 $lvl1=1 $lvl2=2
CF123 S1:35 n0:30 4.45492e-19 $lvl1=1 $lvl2=1
CF124 S1:15 n0:11 1.32234e-16 $lvl1=3 $lvl2=2
CF125 S1:34 n0:15 7.75042e-18 $lvl1=1 $lvl2=2
CF126 S1:18 n0:15 1.04546e-17 $lvl1=3 $lvl2=2
CF127 S1:29 n0:15 8.15736e-18 $lvl1=2 $lvl2=2
CF128 S1:26 n0:15 8.43862e-18 $lvl1=2 $lvl2=2
CF129 S1:29 S0b:35 2.41955e-18 $lvl1=2 $lvl2=2
CF130 S1:29 S0b:22 1.68597e-18 $lvl1=2 $lvl2=3
CF131 S1:20 VSS!:14 7.09626e-18 $lvl1=3 $lvl2=2
CF132 S1:37 VSS!:14 4.08046e-18 $lvl1=1 $lvl2=2
CF133 S1:30 VSS!:14 3.55032e-18 $lvl1=2 $lvl2=2
CF134 S1:23 VSS!:1 1.70923e-18 $lvl1=3 $lvl2=2
CF135 S1 VSS!:23 1.14745e-18 $lvl1=1 $lvl2=1
CF136 S1:20 Mmn1:s 1.08675e-18 $lvl1=3 $lvl2=4
CF137 S1:23 VSS!:4 7.82815e-18 $lvl1=3 $lvl2=2
CF138 Mmn1:g VSS!:9 8.33654e-18 $lvl1=3 $lvl2=2
CF139 Mmn1:g VSS!:14 6.86143e-17 $lvl1=3 $lvl2=2
CF140 S1:33 VSS!:14 1.06356e-17 $lvl1=2 $lvl2=2
CF141 S1:32 VSS!:14 8.17877e-18 $lvl1=2 $lvl2=2
CF142 S1:37 VSS!:23 1.13673e-17 $lvl1=1 $lvl2=1
CF143 S1:18 VDD! 6.17275e-18 $lvl1=3 $lvl2=1
CF144 S1:15 VDD!:17 4.97372e-18 $lvl1=3 $lvl2=2
CF145 S1:15 VDD!:6 3.73533e-18 $lvl1=3 $lvl2=2
CF146 S1:37 VDD! 3.61525e-18 $lvl1=1 $lvl2=1
CF147 S1:34 VDD! 1.50686e-18 $lvl1=1 $lvl2=1
CF148 S1 VDD! 1.36481e-18 $lvl1=1 $lvl2=1
CF149 S1:24 VDD!:6 9.73087e-18 $lvl1=3 $lvl2=2
CF150 S1:24 VDD!:15 1.28849e-16 $lvl1=3 $lvl2=2
ReF107 S1:34 S1:35 0.173077 $metal1  $L=0.36 $W=0.260000 $SI_W=0.26 $TYPE=10 $DIR=1 $LLX=4.010000 $LLY=1.775000 $URX=4.270000 $URY=2.135000 $lvl=1
ReF108 S1:35 S1 0.137019 $metal1  $L=0.285 $W=0.260000 $SI_W=0.26 $TYPE=10 $DIR=1 $LLX=4.010000 $LLY=1.490000 $URX=4.270000 $URY=1.775000 $lvl=1
ReF109 S1 S1:36 0.189904 $metal1  $L=0.395 $W=0.260000 $SI_W=0.26 $TYPE=10 $DIR=1 $LLX=4.010000 $LLY=1.095000 $URX=4.270000 $URY=1.490000 $lvl=1
ReF110 S1:36 S1:37 0.096154 $metal1  $L=0.2 $W=0.260000 $SI_W=0.26 $TYPE=10 $DIR=1 $LLX=4.010000 $LLY=0.895000 $URX=4.270000 $URY=1.095000 $lvl=1
RfF111 S1:26 S1:27 12.423529 $li  $L=0.165 $W=0.170000 $SI_W=0.17 $TYPE=10 $DIR=0 $LLX=4.345000 $LLY=1.690000 $URX=4.510000 $URY=1.860000 $lvl=2
RfF112 S1:27 S1:28 16.564707 $li  $L=0.22 $W=0.170000 $SI_W=0.17 $TYPE=10 $DIR=0 $LLX=4.125000 $LLY=1.690000 $URX=4.345000 $URY=1.860000 $lvl=2
RfF113 S1:28 S1:29 12.423529 $li  $L=0.165 $W=0.170000 $SI_W=0.17 $TYPE=10 $DIR=0 $LLX=3.960000 $LLY=1.690000 $URX=4.125000 $URY=1.860000 $lvl=2
RfF114 S1:30 S1:31 12.423529 $li  $L=0.165 $W=0.170000 $SI_W=0.17 $TYPE=10 $DIR=0 $LLX=4.345000 $LLY=1.010000 $URX=4.510000 $URY=1.180000 $lvl=2
RfF115 S1:31 S1:32 16.564707 $li  $L=0.22 $W=0.170000 $SI_W=0.17 $TYPE=10 $DIR=0 $LLX=4.125000 $LLY=1.010000 $URX=4.345000 $URY=1.180000 $lvl=2
RfF116 S1:32 S1:33 12.423529 $li  $L=0.165 $W=0.170000 $SI_W=0.17 $TYPE=10 $DIR=0 $LLX=3.960000 $LLY=1.010000 $URX=4.125000 $URY=1.180000 $lvl=2
RgF117 S1:15 Mmp10:g 173.519989 $poly  $L=0.54 $W=0.150000 $SI_W=0.15 $TYPE=10 $DIR=1 $LLX=5.220000 $LLY=3.355000 $URX=5.370000 $URY=3.895000 $lvl=3
RgF118 Mmp10:g S1:16 469.949982 $poly  $L=1.4625 $W=0.150000 $SI_W=0.15 $TYPE=10 $DIR=1 $LLX=5.220000 $LLY=1.892500 $URX=5.370000 $URY=3.355000 $lvl=3
RgF119 S1:16 S1:17 304.565308 $poly  $L=0.95 $W=0.150000 $SI_W=0.15 $TYPE=10 $DIR=0 $LLX=4.345000 $LLY=1.820000 $URX=5.295000 $URY=1.970000 $lvl=3
RgF120 S1:17 S1:18 21.422222 $poly  $L=0.12 $W=0.270000 $SI_W=0.27 $TYPE=10 $DIR=1 $LLX=4.210000 $LLY=1.775000 $URX=4.480000 $URY=1.895000 $lvl=3
RgF121 S1:18 S1:19 29.410925 $poly  $L=0.1645 $W=0.270000 $SI_W=0.27 $TYPE=10 $DIR=1 $LLX=4.210000 $LLY=1.610500 $URX=4.480000 $URY=1.775000 $lvl=3
RgF122 S1:19 S1:20 146.690369 $poly  $L=0.515 $W=0.150000 $SI_W=0.15 $TYPE=10 $DIR=1 $LLX=4.270000 $LLY=1.095000 $URX=4.420000 $URY=1.610000 $lvl=3
RgF123 S1:20 S1:21 34.134449 $poly  $L=0.1645 $W=0.270000 $SI_W=0.27 $TYPE=10 $DIR=1 $LLX=4.210000 $LLY=0.930500 $URX=4.480000 $URY=1.095000 $lvl=3
RgF124 S1:21 Mmn1:g 103.674629 $poly  $L=0.3225 $W=0.150000 $SI_W=0.15 $TYPE=10 $DIR=1 $LLX=4.270000 $LLY=0.607500 $URX=4.420000 $URY=0.930000 $lvl=3
RgF125 S1:16 S1:22 137.552307 $poly  $L=0.43025 $W=0.150000 $SI_W=0.15 $TYPE=10 $DIR=0 $LLX=5.295000 $LLY=1.815000 $URX=5.725000 $URY=1.965000 $lvl=3
RgF126 S1:22 Mmn11:g 412.190338 $poly  $L=1.28275 $W=0.150000 $SI_W=0.15 $TYPE=10 $DIR=1 $LLX=5.650000 $LLY=0.607000 $URX=5.800000 $URY=1.890000 $lvl=3
RgF127 Mmn11:g S1:23 116.483322 $poly  $L=0.3625 $W=0.150000 $SI_W=0.15 $TYPE=10 $DIR=1 $LLX=5.650000 $LLY=0.245000 $URX=5.800000 $URY=0.607500 $lvl=3
RgF128 S1:17 Mmp1:g 463.159088 $poly  $L=1.46 $W=0.150000 $SI_W=0.15 $TYPE=10 $DIR=1 $LLX=4.270000 $LLY=1.895000 $URX=4.420000 $URY=3.355000 $lvl=3
RgF129 Mmp1:g S1:24 173.519989 $poly  $L=0.54 $W=0.150000 $SI_W=0.15 $TYPE=10 $DIR=1 $LLX=4.270000 $LLY=3.355000 $URX=4.420000 $URY=3.895000 $lvl=3
RgF130 Mmn1:g S1:25 116.483322 $poly  $L=0.3625 $W=0.150000 $SI_W=0.15 $TYPE=10 $DIR=1 $LLX=4.270000 $LLY=0.245000 $URX=4.420000 $URY=0.607500 $lvl=3
RjF131 S1:28 S1:35 152.000000 $mcon  $L=0.17 $W=0.17 $A=0.0289 $VC=0 $SAVL=0 $SAVC=0 $SI_A=0.0289 $COVER_DIR=0 $LLX=0.000000 $LLY=0.000000 $URX=0.170000 $URY=0.170000 $lvl=6
RjF132 S1:32 S1:36 152.000000 $mcon  $L=0.17 $W=0.17 $A=0.0289 $VC=0 $SAVL=0 $SAVC=0 $SI_A=0.0289 $COVER_DIR=0 $LLX=0.000000 $LLY=0.000000 $URX=0.170000 $URY=0.170000 $lvl=6
RiF133 S1:18 S1:27 15.000000 $licon  $L=0.17 $W=0.17 $A=0.0289 $VC=0 $SAVL=0 $SAVC=0 $SI_A=0.0289 $COVER_DIR=0 $LLX=0.000000 $LLY=0.000000 $URX=0.170000 $URY=0.170000 $lvl=7
RiF134 S1:20 S1:31 15.000000 $licon  $L=0.17 $W=0.17 $A=0.0289 $VC=0 $SAVL=0 $SAVC=0 $SI_A=0.0289 $COVER_DIR=0 $LLX=0.000000 $LLY=0.000000 $URX=0.170000 $URY=0.170000 $lvl=7
*
*|NET VDD! 4.05208e-15
*|P (VDD! X 0 3.2800 4.1450) // $llx=3.2800 $lly=4.1450 $urx=3.2800 $ury=4.1450 $lvl=1
*|I (Mmp10:b Mmp10 b X 0 5.2950 3.3550) // $llx=5.2950 $lly=3.3550 $urx=5.2950 $ury=3.3550 $lvl=8
*|I (Mmp11:b Mmp11 b X 0 5.7250 3.3550) // $llx=5.7250 $lly=3.3550 $urx=5.7250 $ury=3.3550 $lvl=8
*|I (Mmp7:b Mmp7 b X 0 3.0550 3.3550) // $llx=3.0550 $lly=3.3550 $urx=3.0550 $ury=3.3550 $lvl=8
*|I (Mmp3:b Mmp3 b X 0 1.3350 3.3550) // $llx=1.3350 $lly=3.3550 $urx=1.3350 $ury=3.3550 $lvl=8
*|I (Mmp12:s Mmp12 s X 0 6.5995 3.0150) // $llx=6.5995 $lly=3.0150 $urx=6.5995 $ury=3.0150 $lvl=4
*|I (Mmp12:b Mmp12 b X 0 6.6750 3.0150) // $llx=6.6750 $lly=3.0150 $urx=6.6750 $ury=3.0150 $lvl=8
*|I (Mmp9:b Mmp9 b X 0 3.4850 3.3550) // $llx=3.4850 $lly=3.3550 $urx=3.4850 $ury=3.3550 $lvl=8
*|I (Mmp5:b Mmp5 b X 0 1.7650 3.3550) // $llx=1.7650 $lly=3.3550 $urx=1.7650 $ury=3.3550 $lvl=8
*|I (Mmp1:s Mmp1 s X 0 4.2695 3.3550) // $llx=4.2695 $lly=3.3550 $urx=4.2695 $ury=3.3550 $lvl=4
*|I (Mmp1:b Mmp1 b X 0 4.3450 3.3550) // $llx=4.3450 $lly=3.3550 $urx=4.3450 $ury=3.3550 $lvl=8
*|I (Mmp0:s Mmp0 s X 0 0.5505 3.3550) // $llx=0.5505 $lly=3.3550 $urx=0.5505 $ury=3.3550 $lvl=4
*|I (Mmp0:b Mmp0 b X 0 0.4750 3.3550) // $llx=0.4750 $lly=3.3550 $urx=0.4750 $ury=3.3550 $lvl=8
*|I (Mmp8:s Mmp8 s X 0 3.9905 3.3550) // $llx=3.9905 $lly=3.3550 $urx=3.9905 $ury=3.3550 $lvl=4
*|I (Mmp8:b Mmp8 b X 0 3.9150 3.3550) // $llx=3.9150 $lly=3.3550 $urx=3.9150 $ury=3.3550 $lvl=8
*|I (Mmp6:s Mmp6 s X 0 2.5495 3.3550) // $llx=2.5495 $lly=3.3550 $urx=2.5495 $ury=3.3550 $lvl=4
*|I (Mmp6:b Mmp6 b X 0 2.6250 3.3550) // $llx=2.6250 $lly=3.3550 $urx=2.6250 $ury=3.3550 $lvl=8
*|I (Mmp2:s Mmp2 s X 0 0.8295 3.3550) // $llx=0.8295 $lly=3.3550 $urx=0.8295 $ury=3.3550 $lvl=4
*|I (Mmp2:b Mmp2 b X 0 0.9050 3.3550) // $llx=0.9050 $lly=3.3550 $urx=0.9050 $ury=3.3550 $lvl=8
*|I (Mmp4:s Mmp4 s X 0 2.2705 3.3550) // $llx=2.2705 $lly=3.3550 $urx=2.2705 $ury=3.3550 $lvl=4
*|I (Mmp4:b Mmp4 b X 0 2.1950 3.3550) // $llx=2.1950 $lly=3.3550 $urx=2.1950 $ury=3.3550 $lvl=8
*|S (VDD!:1 0.6900 2.9250) // $llx=0.6900 $lly=2.9250 $urx=0.6900 $ury=2.9250 $lvl=2
*|S (VDD!:3 0.6900 3.3550) // $llx=0.6900 $lly=3.3550 $urx=0.6900 $ury=3.3550 $lvl=2
*|S (VDD!:4 0.6900 4.1400) // $llx=0.6900 $lly=4.1400 $urx=0.6900 $ury=4.1400 $lvl=2
*|S (VDD!:5 0.0000 4.1400) // $llx=0.0000 $lly=4.1400 $urx=0.0000 $ury=4.1400 $lvl=2
*|S (VDD!:6 2.4100 4.1400) // $llx=2.4100 $lly=4.1400 $urx=2.4100 $ury=4.1400 $lvl=2
*|S (VDD!:8 2.4100 3.3550) // $llx=2.4100 $lly=3.3550 $urx=2.4100 $ury=3.3550 $lvl=2
*|S (VDD!:9 2.4100 2.9250) // $llx=2.4100 $lly=2.9250 $urx=2.4100 $ury=2.9250 $lvl=2
*|S (VDD!:10 3.6800 4.1400) // $llx=3.6800 $lly=4.1400 $urx=3.6800 $ury=4.1400 $lvl=2
*|S (VDD!:11 3.6800 4.1400) // $llx=3.6800 $lly=4.1400 $urx=3.6800 $ury=4.1400 $lvl=4
*|S (VDD!:13 4.1300 4.1400) // $llx=4.1300 $lly=4.1400 $urx=4.1300 $ury=4.1400 $lvl=2
*|S (VDD!:15 4.1300 3.3550) // $llx=4.1300 $lly=3.3550 $urx=4.1300 $ury=3.3550 $lvl=2
*|S (VDD!:16 4.1300 2.9250) // $llx=4.1300 $lly=2.9250 $urx=4.1300 $ury=2.9250 $lvl=2
*|S (VDD!:17 6.4600 4.1400) // $llx=6.4600 $lly=4.1400 $urx=6.4600 $ury=4.1400 $lvl=2
*|S (VDD!:19 6.4600 3.0150) // $llx=6.4600 $lly=3.0150 $urx=6.4600 $ury=3.0150 $lvl=2
*|S (VDD!:20 6.4600 2.2850) // $llx=6.4600 $lly=2.2850 $urx=6.4600 $ury=2.2850 $lvl=2
*|S (VDD!:21 7.3595 4.1400) // $llx=7.3595 $lly=4.1400 $urx=7.3595 $ury=4.1400 $lvl=2
*|S (VDD!:22 7.3600 4.1400) // $llx=7.3600 $lly=4.1400 $urx=7.3600 $ury=4.1400 $lvl=1
*|S (VDD!:23 3.6800 4.1400) // $llx=3.6800 $lly=4.1400 $urx=3.6800 $ury=4.1400 $lvl=1
*|S (VDD!:24 0.0000 4.1400) // $llx=0.0000 $lly=4.1400 $urx=0.0000 $ury=4.1400 $lvl=1
CH1 Mmp6:s VSS! 1.59444e-18 $lvl=4
CH2 Mmp0:s VSS! 2.49663e-18 $lvl=4
CH3 Mmp1:s VSS! 1.02101e-18 $lvl=4
CH4 Mmp12:s VSS! 4.57169e-18 $lvl=4
CH5 VDD!:23 VSS! 3.23847e-17 $lvl=1
CH6 VDD!:22 VSS! 7.17069e-18 $lvl=1
CH7 VDD!:24 VSS! 7.19732e-18 $lvl=1
CH8 VDD!:15 VSS! 6.00174e-18 $lvl=2
CH9 VDD!:3 VSS! 4.14874e-18 $lvl=2
CH10 VDD!:9 VSS! 7.10829e-18 $lvl=2
CH11 VDD!:20 VSS! 1.02917e-17 $lvl=2
CH12 VDD!:21 VSS! 2.66346e-18 $lvl=2
CH13 VDD!:17 VSS! 3.52344e-18 $lvl=2
CH14 VDD!:6 VSS! 7.07834e-18 $lvl=2
CH15 VDD!:4 VSS! 5.77561e-18 $lvl=2
CH16 VDD!:5 VSS! 3.25356e-18 $lvl=2
CH17 VDD!:11 VSS! 7.66845e-18 $lvl=4
CH18 VDD!:10 VSS! 7.29345e-18 $lvl=2
CH19 VDD! VSS! 2.09055e-17 $lvl=1
CH20 VDD!:23 n10 1.42622e-18 $lvl1=1 $lvl2=2
CH21 VDD!:10 n10 9.24217e-19 $lvl1=2 $lvl2=2
CH22 VDD!:15 Mmp9:s 9.12193e-19 $lvl1=2 $lvl2=4
CH23 VDD! n10:3 6.0398e-19 $lvl1=1 $lvl2=2
CH24 VDD!:6 n10:3 1.69456e-18 $lvl1=2 $lvl2=2
CH25 VDD!:6 n10 5.24399e-18 $lvl1=2 $lvl2=2
CH26 VDD!:15 n10:4 5.52492e-18 $lvl1=2 $lvl2=2
CH27 VDD!:15 n10:3 2.85289e-17 $lvl1=2 $lvl2=2
CH28 VDD!:15 n10 8.88901e-18 $lvl1=2 $lvl2=2
CH29 VDD!:6 Mmp9:s 1.97048e-18 $lvl1=2 $lvl2=4
CH30 VDD!:6 Mmp5:s 1.48656e-18 $lvl1=2 $lvl2=4
CH31 VDD!:10 n6 1.0568e-18 $lvl1=2 $lvl2=2
CH32 VDD!:9 Mmp5:s 6.75947e-19 $lvl1=2 $lvl2=4
CH33 VDD!:23 n6:3 6.62425e-19 $lvl1=1 $lvl2=2
CH34 VDD! n6:3 6.21733e-19 $lvl1=1 $lvl2=2
CH35 VDD!:23 n8:3 1.35012e-18 $lvl1=1 $lvl2=2
CH36 VDD!:10 n8 1.21174e-18 $lvl1=2 $lvl2=2
CH37 VDD!:9 Mmp7:s 1.12304e-18 $lvl1=2 $lvl2=4
CH38 VDD! n8:3 7.49097e-19 $lvl1=1 $lvl2=2
CH39 VDD!:9 n8:3 2.8337e-17 $lvl1=2 $lvl2=2
CH40 VDD!:9 n6 9.3183e-18 $lvl1=2 $lvl2=2
CH41 VDD!:9 n8:4 5.54698e-18 $lvl1=2 $lvl2=2
CH42 VDD!:6 Mmp7:s 1.53811e-18 $lvl1=2 $lvl2=4
CH43 VDD!:23 n6 1.79173e-18 $lvl1=1 $lvl2=2
CH44 VDD!:6 n8:3 1.76231e-18 $lvl1=2 $lvl2=2
CH45 VDD!:9 n6:3 2.79996e-17 $lvl1=2 $lvl2=2
CH46 VDD!:6 n8 5.14747e-18 $lvl1=2 $lvl2=2
CH47 VDD!:9 n8 9.4454e-18 $lvl1=2 $lvl2=2
CH48 VDD!:23 n8 2.40995e-18 $lvl1=1 $lvl2=2
CH49 VDD!:9 n6:4 5.10228e-18 $lvl1=2 $lvl2=2
CH50 VDD!:6 n6 4.94028e-18 $lvl1=2 $lvl2=2
CH51 VDD!:6 n6:3 1.69037e-18 $lvl1=2 $lvl2=2
CH52 VDD!:10 n4 1.09235e-18 $lvl1=2 $lvl2=2
CH53 Mmp0:s n4:3 4.70648e-19 $lvl1=4 $lvl2=2
CH54 VDD!:10 n4:3 3.85743e-19 $lvl1=2 $lvl2=2
CH55 VDD!:3 Mmp3:s 3.4603e-19 $lvl1=2 $lvl2=4
CH56 VDD!:23 n4 2.63374e-18 $lvl1=1 $lvl2=2
CH57 VDD!:3 n4:3 2.90532e-17 $lvl1=2 $lvl2=2
CH58 VDD!:3 n4 9.59429e-18 $lvl1=2 $lvl2=2
CH59 VDD!:4 Mmp3:s 1.93775e-18 $lvl1=2 $lvl2=4
CH60 VDD!:3 n4:4 5.56714e-18 $lvl1=2 $lvl2=2
CH61 VDD!:4 n4:3 1.84806e-18 $lvl1=2 $lvl2=2
CH62 VDD!:4 n4 4.92351e-18 $lvl1=2 $lvl2=2
CH63 VDD! n4:3 3.59101e-18 $lvl1=1 $lvl2=2
CH64 VDD!:23 n4:3 1.95163e-18 $lvl1=1 $lvl2=2
CH65 VDD!:20 n2:21 9.10226e-18 $lvl1=2 $lvl2=2
CH66 VDD!:17 n2:8 9.00715e-18 $lvl1=2 $lvl2=3
CH67 VDD! n2:9 6.60801e-18 $lvl1=1 $lvl2=3
CH68 VDD! n2:12 5.90445e-18 $lvl1=1 $lvl2=2
CH69 VDD! n2:28 5.13489e-18 $lvl1=1 $lvl2=1
CH70 VDD! n2:21 5.00789e-18 $lvl1=1 $lvl2=2
CH71 VDD! n2:26 4.98115e-18 $lvl1=1 $lvl2=1
CH72 VDD!:20 n2:9 4.61835e-18 $lvl1=2 $lvl2=3
CH73 VDD! n2:24 4.23538e-18 $lvl1=1 $lvl2=2
CH74 VDD!:23 n2:12 4.21444e-18 $lvl1=1 $lvl2=2
CH75 VDD! n2:27 3.61804e-18 $lvl1=1 $lvl2=1
CH76 VDD!:6 n2:12 3.23742e-18 $lvl1=2 $lvl2=2
CH77 VDD!:10 n2:12 2.80543e-18 $lvl1=2 $lvl2=2
CH78 VDD!:23 n2:26 2.72071e-18 $lvl1=1 $lvl2=1
CH79 VDD!:20 n2:24 2.50893e-18 $lvl1=2 $lvl2=2
CH80 VDD!:20 n2:12 2.01918e-18 $lvl1=2 $lvl2=2
CH81 VDD!:17 Mmp10:d 1.56212e-18 $lvl1=2 $lvl2=4
CH82 VDD!:20 n2:8 2.52059e-16 $lvl1=2 $lvl2=3
CH83 VDD!:17 n2:12 1.74759e-17 $lvl1=2 $lvl2=2
CH84 VDD!:17 S1b:12 9.50416e-18 $lvl1=2 $lvl2=3
CH85 VDD!:15 S1b:21 8.89097e-18 $lvl1=2 $lvl2=2
CH86 VDD! S1b:18 8.05722e-18 $lvl1=1 $lvl2=2
CH87 VDD!:23 S1b:32 6.31591e-18 $lvl1=1 $lvl2=1
CH88 VDD! S1b:32 5.96353e-18 $lvl1=1 $lvl2=1
CH89 VDD! S1b:34 5.88258e-18 $lvl1=1 $lvl2=1
CH90 VDD!:23 S1b:18 4.79725e-18 $lvl1=1 $lvl2=2
CH91 VDD! S1b:36 4.10107e-18 $lvl1=1 $lvl2=1
CH92 VDD!:15 S1b:32 4.09627e-18 $lvl1=2 $lvl2=1
CH93 VDD!:6 Mmp1:d 3.6063e-18 $lvl1=2 $lvl2=4
CH94 VDD!:10 S1b:18 2.97387e-18 $lvl1=2 $lvl2=2
CH95 VDD! S1b:11 2.44606e-18 $lvl1=1 $lvl2=3
CH96 VDD!:20 S1b:12 2.38905e-18 $lvl1=2 $lvl2=3
CH97 VDD! S1b:16 2.05409e-18 $lvl1=1 $lvl2=3
CH98 VDD!:11 S1b:18 1.47005e-18 $lvl1=4 $lvl2=2
CH99 VDD!:6 S1b:18 2.56961e-17 $lvl1=2 $lvl2=2
CH100 VDD!:15 S1b:18 5.06469e-17 $lvl1=2 $lvl2=2
CH101 VDD! n1:23 9.71029e-18 $lvl1=1 $lvl2=1
CH102 VDD! n1:19 9.67843e-18 $lvl1=1 $lvl2=1
CH103 VDD! n1:22 8.74734e-18 $lvl1=1 $lvl2=1
CH104 VDD!:6 n1:22 8.36549e-18 $lvl1=2 $lvl2=1
CH105 Mmp12:s n1:10 7.14692e-18 $lvl1=4 $lvl2=2
CH106 VDD!:23 n1:24 6.90219e-18 $lvl1=1 $lvl2=1
CH107 VDD! n1:21 6.15197e-18 $lvl1=1 $lvl2=1
CH108 VDD!:23 n1:21 6.0497e-18 $lvl1=1 $lvl2=1
CH109 VDD!:23 n1:10 5.01661e-18 $lvl1=1 $lvl2=2
CH110 VDD!:20 n1:13 4.99148e-18 $lvl1=2 $lvl2=2
CH111 VDD!:20 Mmp11:d 4.90413e-18 $lvl1=2 $lvl2=4
CH112 VDD!:23 n1 4.80917e-18 $lvl1=1 $lvl2=2
CH113 VDD!:20 n1:23 4.53452e-18 $lvl1=2 $lvl2=1
CH114 VDD!:17 n1:23 4.08755e-18 $lvl1=2 $lvl2=1
CH115 VDD!:10 n1:22 4.07437e-18 $lvl1=2 $lvl2=1
CH116 VDD!:10 n1:23 3.74624e-18 $lvl1=2 $lvl2=1
CH117 VDD!:6 n1:23 3.33926e-18 $lvl1=2 $lvl2=1
CH118 VDD!:10 n1 3.17042e-18 $lvl1=2 $lvl2=2
CH119 VDD! n1 3.1194e-18 $lvl1=1 $lvl2=2
CH120 VDD!:10 n1:10 3.09017e-18 $lvl1=2 $lvl2=2
CH121 VDD!:17 Mmp11:d 2.95629e-18 $lvl1=2 $lvl2=4
CH122 VDD!:6 Mmp7:d 2.47396e-18 $lvl1=2 $lvl2=4
CH123 VDD!:15 n1 1.8442e-18 $lvl1=2 $lvl2=2
CH124 VDD!:23 n1:19 1.44832e-18 $lvl1=1 $lvl2=1
CH125 VDD!:9 n1 1.33539e-18 $lvl1=2 $lvl2=2
CH126 VDD!:17 n1:10 2.68907e-17 $lvl1=2 $lvl2=2
CH127 VDD!:20 n1:10 7.33459e-17 $lvl1=2 $lvl2=2
CH128 VDD!:20 n1:24 1.61719e-17 $lvl1=2 $lvl2=1
CH129 VDD!:15 n1:22 1.991e-17 $lvl1=2 $lvl2=1
CH130 VDD!:23 n1:22 1.01115e-16 $lvl1=1 $lvl2=1
CH131 VDD! n1:10 1.00505e-17 $lvl1=1 $lvl2=2
CH132 VDD! n1:25 1.0748e-17 $lvl1=1 $lvl2=1
CH133 VDD! n1:24 1.15013e-17 $lvl1=1 $lvl2=1
CH134 VDD!:6 n1 2.57919e-17 $lvl1=2 $lvl2=2
CH135 VDD!:23 n1:23 9.77841e-17 $lvl1=1 $lvl2=1
CH136 VDD! n0:23 8.41487e-18 $lvl1=1 $lvl2=1
CH137 VDD! n0:31 6.84179e-18 $lvl1=1 $lvl2=1
CH138 VDD! n0:28 6.38475e-18 $lvl1=1 $lvl2=1
CH139 VDD! n0:26 5.87291e-18 $lvl1=1 $lvl2=1
CH140 VDD! n0 5.63233e-18 $lvl1=1 $lvl2=2
CH141 VDD! n0:30 5.03577e-18 $lvl1=1 $lvl2=1
CH142 VDD!:23 n0 4.83002e-18 $lvl1=1 $lvl2=2
CH143 VDD!:23 n0:11 4.6238e-18 $lvl1=1 $lvl2=2
CH144 VDD!:17 n0:11 4.62036e-18 $lvl1=2 $lvl2=2
CH145 VDD!:23 n0:30 3.06389e-18 $lvl1=1 $lvl2=1
CH146 VDD!:10 n0 2.71836e-18 $lvl1=2 $lvl2=2
CH147 VDD!:10 n0:11 2.49223e-18 $lvl1=2 $lvl2=2
CH148 VDD!:3 n0 2.38268e-18 $lvl1=2 $lvl2=2
CH149 VDD!:23 n0:26 2.11197e-18 $lvl1=1 $lvl2=1
CH150 VDD!:6 Mmp10:s 1.90063e-18 $lvl1=2 $lvl2=4
CH151 VDD!:23 n0:2 1.85275e-18 $lvl1=1 $lvl2=2
CH152 VDD!:3 n0:28 1.6733e-18 $lvl1=2 $lvl2=1
CH153 VDD!:9 n0 1.65877e-18 $lvl1=2 $lvl2=2
CH154 VDD!:6 Mmp3:d 1.648e-18 $lvl1=2 $lvl2=4
CH155 VDD!:15 n0:15 1.62658e-18 $lvl1=2 $lvl2=2
CH156 VDD!:6 n0:28 1.54695e-18 $lvl1=2 $lvl2=1
CH157 VDD!:10 n0:28 1.46468e-18 $lvl1=2 $lvl2=1
CH158 VDD! n0:17 1.42495e-18 $lvl1=1 $lvl2=2
CH159 VDD!:4 n0:28 1.23455e-18 $lvl1=2 $lvl2=1
CH160 VDD!:23 n0:31 1.14037e-18 $lvl1=1 $lvl2=1
CH161 VDD!:9 n0:28 1.05778e-18 $lvl1=2 $lvl2=1
CH162 VDD!:23 n0:28 3.70914e-17 $lvl1=1 $lvl2=1
CH163 VDD!:6 n0 1.18268e-17 $lvl1=2 $lvl2=2
CH164 VDD!:4 n0 1.50333e-17 $lvl1=2 $lvl2=2
CH165 VDD!:6 n0:11 2.38305e-17 $lvl1=2 $lvl2=2
CH166 VDD! n0:11 1.6624e-17 $lvl1=1 $lvl2=2
CH167 VDD! n0:16 1.00039e-17 $lvl1=1 $lvl2=2
CH168 VDD! n0:15 1.37728e-17 $lvl1=1 $lvl2=2
CH169 VDD!:6 S0b:15 8.1271e-18 $lvl1=2 $lvl2=3
CH170 VDD!:24 S0b:39 7.59954e-18 $lvl1=1 $lvl2=1
CH171 VDD!:24 S0b:25 7.57081e-18 $lvl1=1 $lvl2=2
CH172 VDD!:3 S0b:39 7.14008e-18 $lvl1=2 $lvl2=1
CH173 VDD!:3 S0b:28 6.75556e-18 $lvl1=2 $lvl2=2
CH174 VDD! S0b:22 5.65062e-18 $lvl1=1 $lvl2=3
CH175 VDD! S0b:17 5.23028e-18 $lvl1=1 $lvl2=3
CH176 VDD!:23 S0b:25 4.45854e-18 $lvl1=1 $lvl2=2
CH177 VDD! S0b:37 4.28991e-18 $lvl1=1 $lvl2=2
CH178 VDD! S0b:36 3.82174e-18 $lvl1=1 $lvl2=2
CH179 VDD! S0b:28 2.71008e-18 $lvl1=1 $lvl2=2
CH180 VDD! S0b:35 2.69167e-18 $lvl1=1 $lvl2=2
CH181 VDD!:4 S0b:15 2.67764e-18 $lvl1=2 $lvl2=3
CH182 VDD! S0b:33 2.67076e-18 $lvl1=1 $lvl2=2
CH183 VDD!:11 S0b:25 2.49542e-18 $lvl1=4 $lvl2=2
CH184 VDD!:23 S0b:41 2.26465e-18 $lvl1=1 $lvl2=1
CH185 VDD!:9 S0b:15 1.85501e-18 $lvl1=2 $lvl2=3
CH186 VDD! S0b:30 1.70032e-18 $lvl1=1 $lvl2=2
CH187 VDD!:10 S0b:25 1.63653e-18 $lvl1=2 $lvl2=2
CH188 VDD!:5 S0b:39 1.47213e-18 $lvl1=2 $lvl2=1
CH189 VDD!:15 S0b:20 1.46182e-18 $lvl1=2 $lvl2=3
CH190 VDD!:24 S0b:41 1.21237e-18 $lvl1=1 $lvl2=1
CH191 VDD!:4 S0b:25 1.37081e-17 $lvl1=2 $lvl2=2
CH192 VDD!:6 S0b:20 1.01636e-17 $lvl1=2 $lvl2=3
CH193 VDD! S0b:38 1.22552e-17 $lvl1=1 $lvl2=2
CH194 VDD!:5 S0b:25 1.18188e-17 $lvl1=2 $lvl2=2
CH195 VDD! S0b:29 1.21598e-17 $lvl1=1 $lvl2=2
CH196 VDD!:23 S0b:39 1.09718e-17 $lvl1=1 $lvl2=1
CH197 VDD! S0b:42 2.31818e-17 $lvl1=1 $lvl2=1
CH198 VDD! S0b:25 3.04389e-17 $lvl1=1 $lvl2=2
CH199 VDD! S0b:41 3.55719e-17 $lvl1=1 $lvl2=1
CH200 VDD!:3 S0b:25 5.11644e-17 $lvl1=2 $lvl2=2
CH201 VDD! S0b:39 2.91296e-17 $lvl1=1 $lvl2=1
CH202 VDD! VSS!:10 3.98945e-17 $lvl1=1 $lvl2=2
CH203 VDD! VSS!:11 1.52472e-17 $lvl1=1 $lvl2=2
CH204 VDD! VSS!:23 2.00533e-16 $lvl1=1 $lvl2=1
CH205 VDD! VSS!:22 3.41011e-17 $lvl1=1 $lvl2=1
CH206 VDD! VSS!:24 2.63191e-17 $lvl1=1 $lvl2=1
CH207 VDD! VSS!:6 1.75591e-17 $lvl1=1 $lvl2=2
CH208 VDD! VSS!:12 1.64551e-17 $lvl1=1 $lvl2=2
CH209 VDD! VSS!:4 4.26795e-17 $lvl1=1 $lvl2=2
CH210 VDD! VSS!:9 9.16146e-17 $lvl1=1 $lvl2=2
ReH150 VDD!:22 VDD!:23 1.150000 $metal1  $L=3.68 $W=0.400000 $SI_W=0.4 $TYPE=10 $DIR=0 $LLX=3.680000 $LLY=3.940000 $URX=7.360000 $URY=4.340000 $lvl=1
ReH151 VDD!:23 VDD! 0.125000 $metal1  $L=0.4 $W=0.400000 $SI_W=0.4 $TYPE=10 $DIR=0 $LLX=3.280000 $LLY=3.940000 $URX=3.680000 $URY=4.340000 $lvl=1
ReH152 VDD! VDD!:24 1.025000 $metal1  $L=3.28 $W=0.400000 $SI_W=0.4 $TYPE=10 $DIR=0 $LLX=0.000000 $LLY=3.940000 $URX=3.280000 $URY=4.340000 $lvl=1
RfH153 VDD!:1 VDD!:3 32.376472 $li  $L=0.43 $W=0.170000 $SI_W=0.17 $TYPE=10 $DIR=1 $LLX=0.605000 $LLY=2.925000 $URX=0.775000 $URY=3.355000 $lvl=2
RfH154 VDD!:3 VDD!:4 56.106915 $li  $L=0.78525 $W=0.170000 $SI_W=0.17 $TYPE=10 $DIR=1 $LLX=0.605000 $LLY=3.355000 $URX=0.775000 $URY=4.140000 $lvl=2
RfH155 VDD!:4 VDD!:5 35.340801 $li  $L=0.69025 $W=0.250000 $SI_W=0.25 $TYPE=10 $DIR=0 $LLX=0.000000 $LLY=4.015000 $URX=0.690000 $URY=4.265000 $lvl=2
RfH156 VDD!:4 VDD!:6 88.063995 $li  $L=1.72 $W=0.250000 $SI_W=0.25 $TYPE=10 $DIR=0 $LLX=0.690000 $LLY=4.015000 $URX=2.410000 $URY=4.265000 $lvl=2
RfH157 VDD!:6 VDD!:8 56.106915 $li  $L=0.78525 $W=0.170000 $SI_W=0.17 $TYPE=10 $DIR=1 $LLX=2.325000 $LLY=3.355000 $URX=2.495000 $URY=4.140000 $lvl=2
RfH158 VDD!:8 VDD!:9 32.376472 $li  $L=0.43 $W=0.170000 $SI_W=0.17 $TYPE=10 $DIR=1 $LLX=2.325000 $LLY=2.925000 $URX=2.495000 $URY=3.355000 $lvl=2
RfH159 VDD!:6 VDD!:10 65.011192 $li  $L=1.26975 $W=0.250000 $SI_W=0.25 $TYPE=10 $DIR=0 $LLX=2.410000 $LLY=4.015000 $URX=3.680000 $URY=4.265000 $lvl=2
RfH160 VDD!:10 VDD!:13 23.052799 $li  $L=0.45025 $W=0.250000 $SI_W=0.25 $TYPE=10 $DIR=0 $LLX=3.680000 $LLY=4.015000 $URX=4.130000 $URY=4.265000 $lvl=2