*
*|DSPF 1.5
*
*|DATE "Wed Jan  8 20:49:15 2025"
*|VENDOR "Cadence Design Systems"
*|PROGRAM "Cadence Quantus Extraction"
*|VERSION "22.1.0-p089 Linux 64 bit - (Thu Jan 19 11:47:08 PST 2023)"
*|DESIGN NAND4X2_HS
*|DIVIDER /
*|DELIMITER :
*|DeviceFingerDelim "@"
*|BUSBIT []
*|GLOBAL_TEMPERATURE 25
*|OPERATING_TEMPERATURE 25

** *VIA_COVERAGE_CODES
** *index FF FS FP FU SF SS SP SU PF PS PP PU UF US UP UU X_by_Y
** * "FF" stands for Full landing and Full coverage
** *0 0 0 0 0 0 0 0 0 0 0 0 0 0 0 0 0
** *1 0 0 0 0 0 0 0 0 0 0 0 0 0 0 0 1 1x1
** *2 0 0 0 0 0 0 0 0 0 0 0 0 0 0 1 0 1x1
** *3 0 0 0 0 0 0 0 0 0 0 0 0 0 1 0 0 1x1
** *4 0 0 0 0 0 0 0 0 0 0 0 0 1 0 0 0 1x1
** *5 0 0 0 0 0 0 0 0 0 0 0 1 0 0 0 0 1x1
** *6 0 0 0 0 0 0 0 0 0 0 1 0 0 0 0 0 1x1
** *7 0 0 0 0 0 0 0 0 0 1 0 0 0 0 0 0 1x1
** *8 0 0 0 0 0 0 0 0 1 0 0 0 0 0 0 0 1x1
** *9 0 0 0 0 0 0 0 1 0 0 0 0 0 0 0 0 1x1
** *10 0 0 0 0 0 0 1 0 0 0 0 0 0 0 0 0 1x1
** *11 0 0 0 0 0 1 0 0 0 0 0 0 0 0 0 0 1x1
** *12 0 0 0 0 1 0 0 0 0 0 0 0 0 0 0 0 1x1
** *13 0 0 0 1 0 0 0 0 0 0 0 0 0 0 0 0 1x1
** *14 0 0 1 0 0 0 0 0 0 0 0 0 0 0 0 0 1x1
** *15 0 1 0 0 0 0 0 0 0 0 0 0 0 0 0 0 1x1
** *16 1 0 0 0 0 0 0 0 0 0 0 0 0 0 0 0 1x1

** *RESISTOR_TYPES
** *1 SHORTING_ELEMENT
** *2 PRES_NG
** *3 PRES_PG
** *4 PRES_NF
** *5 PRES_PF
** *6 TCN_NDIFF
** *7 TCN_PDIFF
** *8 TCN_NFIELD
** *9 TCN_PFIELD
** *10 QUALITY_EXTRACTED
** *11 GCNLAND
** *12 TCNLAND
** *13 DUMMY
** *14 RSD
** *15 BRIDGE

** *RESISTOR_CURRENT_DIRECTION
** *0 HORIZONTAL
** *1 VERTICAL
** *2 45 DEGREE

** QRC_TECH_DIR /vols/wfo_devel/projects/reference_SKY130/tech/sky130_release_0.0.4/quantus/extraction/typical 
** HIERARCHICAL_SPLIT_PINS_DELIMITER '%'
** caps2d version: 10
*
.SUBCKT  NAND4X2_HS A B C D Y
*
*Net Section
*
*|GROUND_NET VSS!
*
*LAYER_MAP
*0 none
*1 metal1
*2 li
*3 poly
*4 diff
*5 licon_diff
*6 mcon
*7 licon
*8 FOX

*|NET n0 1.66994e-15
*|I (Mmn3:s Mmn3 s X 0 3.4995 0.7750) // $llx=3.4995 $lly=0.7750 $urx=3.4995 $ury=0.7750 $lvl=4
*|I (Mmn3@1:s Mmn3@1 s X 0 4.0805 0.7750) // $llx=4.0805 $lly=0.7750 $urx=4.0805 $ury=0.7750 $lvl=4
*|I (Mmn2:d Mmn2 d X 0 2.6395 0.7750) // $llx=2.6395 $lly=0.7750 $urx=2.6395 $ury=0.7750 $lvl=4
*|I (Mmn2@1:d Mmn2@1 d X 0 3.2205 0.7750) // $llx=3.2205 $lly=0.7750 $urx=3.2205 $ury=0.7750 $lvl=4
*|S (n0 2.5000 1.1550) // $llx=2.5000 $lly=1.1550 $urx=2.5000 $ury=1.1550 $lvl=2
*|S (n0:3 2.5000 0.7750) // $llx=2.5000 $lly=0.7750 $urx=2.5000 $ury=0.7750 $lvl=2
*|S (n0:4 2.5000 0.5600) // $llx=2.5000 $lly=0.5600 $urx=2.5000 $ury=0.5600 $lvl=2
*|S (n0:5 3.3600 1.1550) // $llx=3.3600 $lly=1.1550 $urx=3.3600 $ury=1.1550 $lvl=2
*|S (n0:7 3.3600 0.7750) // $llx=3.3600 $lly=0.7750 $urx=3.3600 $ury=0.7750 $lvl=2
*|S (n0:8 3.3600 0.5600) // $llx=3.3600 $lly=0.5600 $urx=3.3600 $ury=0.5600 $lvl=2
*|S (n0:9 4.2200 1.1550) // $llx=4.2200 $lly=1.1550 $urx=4.2200 $ury=1.1550 $lvl=2
*|S (n0:11 4.2200 0.7750) // $llx=4.2200 $lly=0.7750 $urx=4.2200 $ury=0.7750 $lvl=2
*|S (n0:12 4.2200 0.5600) // $llx=4.2200 $lly=0.5600 $urx=4.2200 $ury=0.5600 $lvl=2
*|S (n0:13 4.2200 0.5600) // $llx=4.2200 $lly=0.5600 $urx=4.2200 $ury=0.5600 $lvl=1
*|S (n0:14 4.1050 0.5225) // $llx=4.1050 $lly=0.5225 $urx=4.1050 $ury=0.5225 $lvl=1
*|S (n0:15 3.3600 0.5600) // $llx=3.3600 $lly=0.5600 $urx=3.3600 $ury=0.5600 $lvl=1
*|S (n0:16 3.2450 0.5225) // $llx=3.2450 $lly=0.5225 $urx=3.2450 $ury=0.5225 $lvl=1
*|S (n0:17 2.6145 0.5225) // $llx=2.6145 $lly=0.5225 $urx=2.6145 $ury=0.5225 $lvl=1
*|S (n0:18 2.5000 0.5600) // $llx=2.5000 $lly=0.5600 $urx=2.5000 $ury=0.5600 $lvl=1
CH1 Mmn2:d VSS! 1.91072e-18 $lvl=4
CH2 Mmn3@1:s VSS! 3.52775e-18 $lvl=4
CH3 Mmn3:s VSS! 2.66856e-18 $lvl=4
CH4 n0:17 VSS! 8.14975e-18 $lvl=1
CH5 n0:16 VSS! 7.27704e-18 $lvl=1
CH6 n0:14 VSS! 7.92309e-18 $lvl=1
CH7 n0:9 VSS! 1.86335e-17 $lvl=2
CH8 n0:4 VSS! 4.75695e-18 $lvl=2
CH9 n0:8 VSS! 6.80851e-18 $lvl=2
CH10 n0:12 VSS! 4.33795e-18 $lvl=2
CH11 n0 VSS! 2.19056e-17 $lvl=2
CH12 n0:8 n1:10 6.54457e-18 $lvl1=2 $lvl2=2
CH13 n0:8 n1:7 5.69331e-18 $lvl1=2 $lvl2=2
CH14 n0:17 n1:14 5.49201e-18 $lvl1=1 $lvl2=1
CH15 n0 n1:10 5.41139e-18 $lvl1=2 $lvl2=2
CH16 n0:4 n1:11 4.34644e-18 $lvl1=2 $lvl2=1
CH17 n0:8 n1:11 4.25002e-18 $lvl1=2 $lvl2=1
CH18 n0:16 n1:6 3.48793e-18 $lvl1=1 $lvl2=2
CH19 n0 n1:14 3.43102e-18 $lvl1=2 $lvl2=1
CH20 n0 n1:7 3.20468e-18 $lvl1=2 $lvl2=2
CH21 n0:17 n1:6 3.11981e-18 $lvl1=1 $lvl2=2
CH22 n0:16 n1:7 3.00194e-18 $lvl1=1 $lvl2=2
CH23 n0:17 n1:10 2.49385e-18 $lvl1=1 $lvl2=2
CH24 n0:17 n1:7 2.36542e-18 $lvl1=1 $lvl2=2
CH25 n0:16 n1:10 2.35578e-18 $lvl1=1 $lvl2=2
CH26 n0:4 n1:6 1.89037e-18 $lvl1=2 $lvl2=2
CH27 n0:4 n1:14 1.07365e-18 $lvl1=2 $lvl2=1
CH28 n0 n1:6 4.36053e-17 $lvl1=2 $lvl2=2
CH29 n0:17 n1:11 6.08968e-17 $lvl1=1 $lvl2=1
CH30 n0:8 n1:6 4.46669e-17 $lvl1=2 $lvl2=2
CH31 n0 n1:11 1.19949e-17 $lvl1=2 $lvl2=1
CH32 n0:16 n1:11 2.49677e-17 $lvl1=1 $lvl2=1
CH33 n0 Mmn1@1:s 4.78197e-18 $lvl1=2 $lvl2=4
CH34 Mmn2:d n2:12 3.88931e-18 $lvl1=4 $lvl2=2
CH35 n0:4 n2:12 3.78073e-18 $lvl1=2 $lvl2=2
CH36 n0 n2:12 4.85203e-17 $lvl1=2 $lvl2=2
CH37 n0:17 n2:13 1.78494e-17 $lvl1=1 $lvl2=1
CH38 n0:16 VSS!:6 4.84039e-18 $lvl1=1 $lvl2=2
CH39 n0:8 VSS!:6 4.43107e-18 $lvl1=2 $lvl2=2
CH40 n0:16 VSS!:4 3.99901e-18 $lvl1=1 $lvl2=2
CH41 n0:9 VSS!:9 3.64366e-18 $lvl1=2 $lvl2=1
CH42 n0:8 VSS!:10 3.51248e-18 $lvl1=2 $lvl2=1
CH43 n0:14 VSS!:4 3.44835e-18 $lvl1=1 $lvl2=2
CH44 Mmn2:d VSS!:4 3.22571e-18 $lvl1=4 $lvl2=2
CH45 n0:9 VSS!:7 3.20852e-18 $lvl1=2 $lvl2=4
CH46 n0:17 VSS!:6 3.1384e-18 $lvl1=1 $lvl2=2
CH47 n0:4 VSS!:10 2.70928e-18 $lvl1=2 $lvl2=1
CH48 n0:12 VSS!:9 2.69723e-18 $lvl1=2 $lvl2=1
CH49 n0:14 VSS!:6 2.67681e-18 $lvl1=1 $lvl2=2
CH50 n0:17 VSS!:4 2.54251e-18 $lvl1=1 $lvl2=2
CH51 n0:9 VSS!:6 2.43599e-18 $lvl1=2 $lvl2=2
CH52 n0:12 VSS!:4 2.40182e-18 $lvl1=2 $lvl2=2
CH53 Mmn3:s VSS!:4 2.30033e-18 $lvl1=4 $lvl2=2
CH54 n0 VSS!:6 2.29447e-18 $lvl1=2 $lvl2=2
CH55 Mmn3@1:s VSS!:4 2.27304e-18 $lvl1=4 $lvl2=2
CH56 n0 VSS!:10 2.14136e-18 $lvl1=2 $lvl2=1
CH57 n0:4 VSS!:4 1.92553e-18 $lvl1=2 $lvl2=2
CH58 n0 VSS!:7 1.91557e-18 $lvl1=2 $lvl2=4
CH59 n0:4 VSS!:6 1.71816e-18 $lvl1=2 $lvl2=2
CH60 n0:14 VSS!:9 2.31404e-17 $lvl1=1 $lvl2=1
CH61 n0:14 VSS!:10 6.42576e-17 $lvl1=1 $lvl2=1
CH62 n0:16 VSS!:10 1.09953e-16 $lvl1=1 $lvl2=1
CH63 n0:9 VSS!:4 2.60158e-17 $lvl1=2 $lvl2=2
CH64 n0:17 VSS!:10 8.38375e-17 $lvl1=1 $lvl2=1
CH65 n0 VSS!:4 2.42372e-17 $lvl1=2 $lvl2=2
CH66 n0:8 VSS!:4 2.23567e-17 $lvl1=2 $lvl2=2
ReH174 n0:13 n0:14 0.050022 $metal1  $L=0.1145 $W=0.365000 $SI_W=0.365 $TYPE=10 $DIR=0 $LLX=4.105000 $LLY=0.340000 $URX=4.219500 $URY=0.705000 $lvl=1
ReH175 n0:14 n0:15 0.381860 $metal1  $L=0.745 $W=0.230000 $SI_W=0.23 $TYPE=10 $DIR=0 $LLX=3.360000 $LLY=0.340000 $URX=4.105000 $URY=0.570000 $lvl=1
ReH176 n0:15 n0:16 0.050022 $metal1  $L=0.1145 $W=0.365000 $SI_W=0.365 $TYPE=10 $DIR=0 $LLX=3.245500 $LLY=0.340000 $URX=3.360000 $URY=0.705000 $lvl=1
ReH177 n0:16 n0:17 0.342563 $metal1  $L=0.63 $W=0.230000 $SI_W=0.23 $TYPE=10 $DIR=0 $LLX=2.615000 $LLY=0.340000 $URX=3.245000 $URY=0.570000 $lvl=1
ReH178 n0:17 n0:18 0.050022 $metal1  $L=0.1145 $W=0.365000 $SI_W=0.365 $TYPE=10 $DIR=0 $LLX=2.500000 $LLY=0.340000 $URX=2.614500 $URY=0.705000 $lvl=1
RfH179 n0 n0:3 28.611765 $li  $L=0.38 $W=0.170000 $SI_W=0.17 $TYPE=10 $DIR=1 $LLX=2.415000 $LLY=0.775000 $URX=2.585000 $URY=1.155000 $lvl=2
RfH180 n0:3 n0:4 16.188236 $li  $L=0.215 $W=0.170000 $SI_W=0.17 $TYPE=10 $DIR=1 $LLX=2.415000 $LLY=0.560000 $URX=2.585000 $URY=0.775000 $lvl=2
RfH181 n0:5 n0:7 28.611765 $li  $L=0.38 $W=0.170000 $SI_W=0.17 $TYPE=10 $DIR=1 $LLX=3.275000 $LLY=0.775000 $URX=3.445000 $URY=1.155000 $lvl=2
RfH182 n0:7 n0:8 16.188236 $li  $L=0.215 $W=0.170000 $SI_W=0.17 $TYPE=10 $DIR=1 $LLX=3.275000 $LLY=0.560000 $URX=3.445000 $URY=0.775000 $lvl=2
RfH183 n0:9 n0:11 28.611765 $li  $L=0.38 $W=0.170000 $SI_W=0.17 $TYPE=10 $DIR=1 $LLX=4.135000 $LLY=0.775000 $URX=4.305000 $URY=1.155000 $lvl=2
RfH184 n0:11 n0:12 16.188236 $li  $L=0.215 $W=0.170000 $SI_W=0.17 $TYPE=10 $DIR=1 $LLX=4.135000 $LLY=0.560000 $URX=4.305000 $URY=0.775000 $lvl=2
RhH185 Mmn2:d n0:3 7.500000 $licon_diff  $A=0.0578 $VC=0 $SAVL=0 $SAVC=0 $SI_A=0.0578 $COVER_DIR=0 $LLX=0.000000 $LLY=0.000000 $URX=-0.057800 $URY=-2.000000 $lvl=5
RhH186 Mmn3:s n0:7 7.500000 $licon_diff  $A=0.0578 $VC=0 $SAVL=0 $SAVC=0 $SI_A=0.0578 $COVER_DIR=0 $LLX=0.000000 $LLY=0.000000 $URX=-0.057800 $URY=-2.000000 $lvl=5
RhH187 Mmn3@1:s n0:11 7.500000 $licon_diff  $A=0.0578 $VC=0 $SAVL=0 $SAVC=0 $SI_A=0.0578 $COVER_DIR=0 $LLX=0.000000 $LLY=0.000000 $URX=-0.057800 $URY=-2.000000 $lvl=5
RjH188 n0:12 n0:13 152.000000 $mcon  $L=0.17 $W=0.17 $A=0.0289 $VC=0 $SAVL=0 $SAVC=0 $SI_A=0.0289 $COVER_DIR=0 $LLX=0.000000 $LLY=0.000000 $URX=0.170000 $URY=0.170000 $lvl=6
RjH189 n0:8 n0:15 152.000000 $mcon  $L=0.17 $W=0.17 $A=0.0289 $VC=0 $SAVL=0 $SAVC=0 $SI_A=0.0289 $COVER_DIR=0 $LLX=0.000000 $LLY=0.000000 $URX=0.170000 $URY=0.170000 $lvl=6
RjH190 n0:4 n0:18 152.000000 $mcon  $L=0.17 $W=0.17 $A=0.0289 $VC=0 $SAVL=0 $SAVC=0 $SI_A=0.0289 $COVER_DIR=0 $LLX=0.000000 $LLY=0.000000 $URX=0.170000 $URY=0.170000 $lvl=6
RmwH191 Mmn2@1:d Mmn3:s 0.001000 $diff $W=1000000 $SI_W=1000000 $TYPE=1 $DIR=0
*
*|NET B 1.98157e-15
*|P (B X 0 1.6100 1.8150) // $llx=1.6100 $lly=1.8150 $urx=1.6100 $ury=1.8150 $lvl=1
*|I (Mmp1:g Mmp1 g X 0 1.3350 3.0150) // $llx=1.3350 $lly=3.0150 $urx=1.3350 $ury=3.0150 $lvl=3
*|I (Mmp1@1:g Mmp1@1 g X 0 1.7650 3.0150) // $llx=1.7650 $lly=3.0150 $urx=1.7650 $ury=3.0150 $lvl=3
*|I (Mmn1:g Mmn1 g X 0 1.3350 0.7750) // $llx=1.3350 $lly=0.7750 $urx=1.3350 $ury=0.7750 $lvl=3
*|I (Mmn1@1:g Mmn1@1 g X 0 1.7650 0.7750) // $llx=1.7650 $lly=0.7750 $urx=1.7650 $ury=0.7750 $lvl=3
*|S (B:15 1.7650 3.8950) // $llx=1.7650 $lly=3.8950 $urx=1.7650 $ury=3.8950 $lvl=3
*|S (B:16 1.7650 1.6800) // $llx=1.7650 $lly=1.6800 $urx=1.7650 $ury=1.6800 $lvl=3
*|S (B:17 1.5500 1.6800) // $llx=1.5500 $lly=1.6800 $urx=1.5500 $ury=1.6800 $lvl=3
*|S (B:18 1.3350 1.6800) // $llx=1.3350 $lly=1.6800 $urx=1.3350 $ury=1.6800 $lvl=3
*|S (B:19 1.3250 1.5150) // $llx=1.3250 $lly=1.5150 $urx=1.3250 $ury=1.5150 $lvl=3
*|S (B:20 1.7750 1.5150) // $llx=1.7750 $lly=1.5150 $urx=1.7750 $ury=1.5150 $lvl=3
*|S (B:21 1.7650 0.2450) // $llx=1.7650 $lly=0.2450 $urx=1.7650 $ury=0.2450 $lvl=3
*|S (B:22 1.3250 1.8445) // $llx=1.3250 $lly=1.8445 $urx=1.3250 $ury=1.8445 $lvl=3
*|S (B:23 1.3350 3.8950) // $llx=1.3350 $lly=3.8950 $urx=1.3350 $ury=3.8950 $lvl=3
*|S (B:24 1.3350 0.2450) // $llx=1.3350 $lly=0.2450 $urx=1.3350 $ury=0.2450 $lvl=3
*|S (B:25 1.6100 1.6800) // $llx=1.6100 $lly=1.6800 $urx=1.6100 $ury=1.6800 $lvl=2
*|S (B:26 1.5500 1.6800) // $llx=1.5500 $lly=1.6800 $urx=1.5500 $ury=1.6800 $lvl=2
*|S (B:27 1.6100 2.4600) // $llx=1.6100 $lly=2.4600 $urx=1.6100 $ury=2.4600 $lvl=1
*|S (B:28 1.6100 1.6800) // $llx=1.6100 $lly=1.6800 $urx=1.6100 $ury=1.6800 $lvl=1
*|S (B:29 1.6100 1.2200) // $llx=1.6100 $lly=1.2200 $urx=1.6100 $ury=1.2200 $lvl=1
CB1 Mmn1:g VSS! 2.5532e-18 $lvl=3
CB2 B:27 VSS! 1.6341e-17 $lvl=1
CB3 B:29 VSS! 1.01654e-17 $lvl=1
CB4 B:15 VSS! 1.38281e-18 $lvl=3
CB5 B:23 VSS! 3.27662e-18 $lvl=3
CB6 B:21 VSS! 4.21546e-18 $lvl=3
CB7 B:26 VSS! 1.06473e-17 $lvl=2
CB8 B:25 VSS! 8.52322e-18 $lvl=2
CB9 B:17 VSS! 3.6602e-17 $lvl=3
CB10 B:27 n1:14 6.57411e-18 $lvl1=1 $lvl2=1
CB11 B:17 n1 6.41782e-18 $lvl1=3 $lvl2=2
CB12 B:26 n1 3.88147e-18 $lvl1=2 $lvl2=2
CB13 B:29 n1 3.63371e-18 $lvl1=1 $lvl2=2
CB14 B:29 n1:2 3.22403e-18 $lvl1=1 $lvl2=2
CB15 B:27 n1:11 2.48971e-18 $lvl1=1 $lvl2=1
CB16 B:29 n1:11 2.28169e-18 $lvl1=1 $lvl2=1
CB17 B:25 n1 2.12685e-18 $lvl1=2 $lvl2=2
CB18 B:26 n1:14 1.49109e-18 $lvl1=2 $lvl2=1
CB19 B:17 Mmn1:d 1.06446e-18 $lvl1=3 $lvl2=4
CB20 Mmn1:g n1 1.29031e-16 $lvl1=3 $lvl2=2
CB21 B:21 n1 1.3e-16 $lvl1=3 $lvl2=2
CB22 B:29 n1:14 5.61573e-17 $lvl1=1 $lvl2=1
CB23 B:17 n2:12 4.9296e-18 $lvl1=3 $lvl2=2
CB24 B:26 n2:12 3.28621e-18 $lvl1=2 $lvl2=2
CB25 B:17 n2:5 3.09338e-18 $lvl1=3 $lvl2=2
CB26 B:29 n2:12 2.94034e-18 $lvl1=1 $lvl2=2
CB27 B:29 n2:15 2.71294e-18 $lvl1=1 $lvl2=1
CB28 B:26 n2:5 2.50578e-18 $lvl1=2 $lvl2=2
CB29 B:29 n2:5 2.07368e-18 $lvl1=1 $lvl2=2
CB30 B:27 n2:15 1.74581e-18 $lvl1=1 $lvl2=1
CB31 B:25 n2:12 1.42613e-18 $lvl1=2 $lvl2=2
CB32 B:17 Mmn1@1:s 1.01179e-18 $lvl1=3 $lvl2=4
CB33 B:27 n2:12 1.01054e-18 $lvl1=1 $lvl2=2
CB34 B:29 n2:13 8.4289e-19 $lvl1=1 $lvl2=1
CB35 B:21 n2:12 1.28488e-16 $lvl1=3 $lvl2=2
CB36 Mmn1:g n2:5 1.26755e-16 $lvl1=3 $lvl2=2
CB37 Mmn1:g VSS!:4 9.06241e-18 $lvl1=3 $lvl2=2
CB38 B:21 VSS!:4 8.7861e-18 $lvl1=3 $lvl2=2
CB39 B:27 VDD!:8 9.24968e-18 $lvl1=1 $lvl2=2
CB40 B:15 VDD!:14 7.40163e-18 $lvl1=3 $lvl2=2
CB41 B:23 VDD!:6 7.12521e-18 $lvl1=3 $lvl2=2
CB42 B:17 VDD!:12 4.39154e-18 $lvl1=3 $lvl2=2
CB43 B:17 VDD! 4.22687e-18 $lvl1=3 $lvl2=1
CB44 B:17 VDD!:8 3.76362e-18 $lvl1=3 $lvl2=2
CB45 B:27 VDD!:19 3.56013e-18 $lvl1=1 $lvl2=2
CB46 B:27 VDD!:31 3.42027e-18 $lvl1=1 $lvl2=1
CB47 B:29 VDD! 3.37691e-18 $lvl1=1 $lvl2=1
CB48 B:26 VDD!:8 2.83236e-18 $lvl1=2 $lvl2=2
CB49 B:26 VDD!:12 2.77937e-18 $lvl1=2 $lvl2=2
CB50 B:15 VDD!:6 2.54099e-18 $lvl1=3 $lvl2=2
CB51 B:17 VDD!:19 1.68351e-18 $lvl1=3 $lvl2=2
CB52 B:15 VDD!:19 1.3398e-18 $lvl1=3 $lvl2=2
CB53 B:27 VDD!:1 1.2852e-18 $lvl1=1 $lvl2=2
CB54 B:26 VDD!:19 1.13075e-18 $lvl1=2 $lvl2=2
CB55 B:25 VDD!:12 1.08446e-18 $lvl1=2 $lvl2=2
CB56 B:23 VDD!:14 9.58993e-19 $lvl1=3 $lvl2=2
CB57 B:15 VDD!:8 9.47915e-19 $lvl1=3 $lvl2=2
CB58 B:17 Mmp1@1:s 7.9494e-19 $lvl1=3 $lvl2=4
CB59 B:23 VDD!:8 2.50757e-16 $lvl1=3 $lvl2=2
CB60 B:27 VDD!:12 1.36541e-17 $lvl1=1 $lvl2=2
CB61 B:27 VDD! 1.23507e-17 $lvl1=1 $lvl2=1
CB62 B:15 VDD!:12 2.5229e-16 $lvl1=3 $lvl2=2
CB63 B:27 Y:6 9.35503e-18 $lvl1=1 $lvl2=2
CB64 B:27 Y:10 8.02652e-18 $lvl1=1 $lvl2=2
CB65 B:27 Y:31 5.20987e-18 $lvl1=1 $lvl2=1
CB66 B:27 Y:29 3.97638e-18 $lvl1=1 $lvl2=1
CB67 B:17 Y:10 2.71035e-18 $lvl1=3 $lvl2=2
CB68 B:17 Y:6 2.49659e-18 $lvl1=3 $lvl2=2
CB69 B:26 Y:10 2.18931e-18 $lvl1=2 $lvl2=2
CB70 B:27 Y:4 1.70955e-18 $lvl1=1 $lvl2=2
CB71 B:27 Y:5 1.46205e-18 $lvl1=1 $lvl2=2
CB72 B:26 Y:6 1.1636e-18 $lvl1=2 $lvl2=2
CB73 B:25 Y:10 1.13274e-18 $lvl1=2 $lvl2=2
CB74 B:15 Y:10 9.36887e-19 $lvl1=3 $lvl2=2
CB75 B:23 Y:10 9.33095e-19 $lvl1=3 $lvl2=2
CB76 B:27 Y:28 9.02654e-19 $lvl1=1 $lvl2=1
CB77 B:27 Y 7.70477e-19 $lvl1=1 $lvl2=1
CB78 B:26 Y:5 7.03545e-19 $lvl1=2 $lvl2=2
CB79 B:23 Y:6 2.55465e-16 $lvl1=3 $lvl2=2
CB80 B:15 Y:6 2.49849e-16 $lvl1=3 $lvl2=2
CB81 B:27 Y:30 1.75783e-17 $lvl1=1 $lvl2=1
CB82 B:27 C:29 4.01185e-18 $lvl1=1 $lvl2=1
CB83 B:29 C:29 1.97021e-18 $lvl1=1 $lvl2=1
CB84 B:29 C:27 1.65903e-18 $lvl1=1 $lvl2=1
CB85 B:17 C:17 1.44763e-18 $lvl1=3 $lvl2=3
CB86 B:26 C:27 1.44423e-18 $lvl1=2 $lvl2=1
CB87 B:26 C:29 8.36795e-19 $lvl1=2 $lvl2=1
CB88 B:26 C:25 7.92633e-19 $lvl1=2 $lvl2=2
CB89 B:27 C:27 1.14017e-17 $lvl1=1 $lvl2=1
ReB20 B:27 B 0.310096 $metal1  $L=0.645 $W=0.260000 $SI_W=0.26 $TYPE=10 $DIR=1 $LLX=1.480000 $LLY=1.815000 $URX=1.740000 $URY=2.460000 $lvl=1
ReB21 B B:28 0.064904 $metal1  $L=0.135 $W=0.260000 $SI_W=0.26 $TYPE=10 $DIR=1 $LLX=1.480000 $LLY=1.680000 $URX=1.740000 $URY=1.815000 $lvl=1
ReB22 B:28 B:29 0.221154 $metal1  $L=0.46 $W=0.260000 $SI_W=0.26 $TYPE=10 $DIR=1 $LLX=1.480000 $LLY=1.220000 $URX=1.740000 $URY=1.680000 $lvl=1
RfB23 B:25 B:26 4.517647 $li  $L=0.06 $W=0.170000 $SI_W=0.17 $TYPE=10 $DIR=0 $LLX=1.550000 $LLY=1.595000 $URX=1.610000 $URY=1.765000 $lvl=2
RgB24 B:15 Mmp1@1:g 282.773346 $poly  $L=0.88 $W=0.150000 $SI_W=0.15 $TYPE=10 $DIR=1 $LLX=1.690000 $LLY=3.015000 $URX=1.840000 $URY=3.895000 $lvl=3
RgB25 Mmp1@1:g B:16 423.458862 $poly  $L=1.33475 $W=0.150000 $SI_W=0.15 $TYPE=10 $DIR=1 $LLX=1.690000 $LLY=1.680000 $URX=1.840000 $URY=3.015000 $lvl=3
RgB26 B:16 B:17 31.439547 $poly  $L=0.21525 $W=0.330000 $SI_W=0.33 $TYPE=10 $DIR=0 $LLX=1.550000 $LLY=1.515000 $URX=1.765000 $URY=1.845000 $lvl=3
RgB27 B:17 B:18 31.366514 $poly  $L=0.21475 $W=0.330000 $SI_W=0.33 $TYPE=10 $DIR=0 $LLX=1.335000 $LLY=1.515000 $URX=1.550000 $URY=1.845000 $lvl=3
RgB28 B:18 B:19 46.784668 $poly  $L=0.16475 $W=0.170000 $SI_W=0.17 $TYPE=10 $DIR=1 $LLX=1.240000 $LLY=1.515000 $URX=1.410000 $URY=1.680000 $lvl=3
RgB29 B:19 Mmn1:g 237.857559 $poly  $L=0.74 $W=0.150000 $SI_W=0.15 $TYPE=10 $DIR=1 $LLX=1.260000 $LLY=0.775000 $URX=1.410000 $URY=1.515000 $lvl=3
RgB30 B:16 B:20 46.784668 $poly  $L=0.16475 $W=0.170000 $SI_W=0.17 $TYPE=10 $DIR=1 $LLX=1.690000 $LLY=1.515000 $URX=1.860000 $URY=1.680000 $lvl=3
RgB31 B:20 Mmn1@1:g 237.857559 $poly  $L=0.74 $W=0.150000 $SI_W=0.15 $TYPE=10 $DIR=1 $LLX=1.690000 $LLY=0.775000 $URX=1.840000 $URY=1.515000 $lvl=3
RgB32 Mmn1@1:g B:21 170.306671 $poly  $L=0.53 $W=0.150000 $SI_W=0.15 $TYPE=10 $DIR=1 $LLX=1.690000 $LLY=0.245000 $URX=1.840000 $URY=0.775000 $lvl=3
RgB33 B:18 B:22 46.642902 $poly  $L=0.16425 $W=0.170000 $SI_W=0.17 $TYPE=10 $DIR=1 $LLX=1.240000 $LLY=1.680500 $URX=1.410000 $URY=1.844500 $lvl=3
RgB34 B:22 Mmp1:g 376.030884 $poly  $L=1.17 $W=0.150000 $SI_W=0.15 $TYPE=10 $DIR=1 $LLX=1.260000 $LLY=1.844500 $URX=1.410000 $URY=3.014500 $lvl=3
RgB35 Mmp1:g B:23 282.773346 $poly  $L=0.88 $W=0.150000 $SI_W=0.15 $TYPE=10 $DIR=1 $LLX=1.260000 $LLY=3.015000 $URX=1.410000 $URY=3.895000 $lvl=3
RgB36 Mmn1:g B:24 170.306671 $poly  $L=0.53 $W=0.150000 $SI_W=0.15 $TYPE=10 $DIR=1 $LLX=1.260000 $LLY=0.245000 $URX=1.410000 $URY=0.775000 $lvl=3
RjB37 B:25 B:28 152.000000 $mcon  $L=0.17 $W=0.17 $A=0.0289 $VC=0 $SAVL=0 $SAVC=0 $SI_A=0.0289 $COVER_DIR=0 $LLX=0.000000 $LLY=0.000000 $URX=0.170000 $URY=0.170000 $lvl=6
RiB38 B:17 B:26 7.500000 $licon  $A=0.0578 $VC=0 $SAVL=0 $SAVC=0 $SI_A=0.0578 $COVER_DIR=0 $LLX=0.000000 $LLY=0.000000 $URX=-0.057800 $URY=-2.000000 $lvl=7
*
*|NET Y 4.5375e-15
*|P (Y X 0 3.6950 1.7950) // $llx=3.6950 $lly=1.7950 $urx=3.6950 $ury=1.7950 $lvl=1
*|I (Mmp2:d Mmp2 d X 0 2.7905 3.0150) // $llx=2.7905 $lly=3.0150 $urx=2.7905 $ury=3.0150 $lvl=4
*|I (Mmp2@1:d Mmp2@1 d X 0 3.0695 3.0150) // $llx=3.0695 $lly=3.0150 $urx=3.0695 $ury=3.0150 $lvl=4
*|I (Mmp3:d Mmp3 d X 0 3.6505 3.0150) // $llx=3.6505 $lly=3.0150 $urx=3.6505 $ury=3.0150 $lvl=4
*|I (Mmp3@1:d Mmp3@1 d X 0 3.9295 3.0150) // $llx=3.9295 $lly=3.0150 $urx=3.9295 $ury=3.0150 $lvl=4
*|I (Mmp1:d Mmp1 d X 0 1.4105 3.0150) // $llx=1.4105 $lly=3.0150 $urx=1.4105 $ury=3.0150 $lvl=4
*|I (Mmp1@1:d Mmp1@1 d X 0 1.6895 3.0150) // $llx=1.6895 $lly=3.0150 $urx=1.6895 $ury=3.0150 $lvl=4
*|I (Mmp0:d Mmp0 d X 0 0.5505 3.0150) // $llx=0.5505 $lly=3.0150 $urx=0.5505 $ury=3.0150 $lvl=4
*|I (Mmp0@1:d Mmp0@1 d X 0 0.8295 3.0150) // $llx=0.8295 $lly=3.0150 $urx=0.8295 $ury=3.0150 $lvl=4
*|I (Mmn3:d Mmn3 d X 0 3.6505 0.7750) // $llx=3.6505 $lly=0.7750 $urx=3.6505 $ury=0.7750 $lvl=4
*|I (Mmn3@1:d Mmn3@1 d X 0 3.9295 0.7750) // $llx=3.9295 $lly=0.7750 $urx=3.9295 $ury=0.7750 $lvl=4
*|S (Y:1 0.6900 3.7450) // $llx=0.6900 $lly=3.7450 $urx=0.6900 $ury=3.7450 $lvl=2
*|S (Y:2 0.6900 3.1900) // $llx=0.6900 $lly=3.1900 $urx=0.6900 $ury=3.1900 $lvl=2
*|S (Y:4 0.6900 3.0150) // $llx=0.6900 $lly=3.0150 $urx=0.6900 $ury=3.0150 $lvl=2
*|S (Y:5 0.6900 2.2850) // $llx=0.6900 $lly=2.2850 $urx=0.6900 $ury=2.2850 $lvl=2
*|S (Y:6 1.5500 3.7450) // $llx=1.5500 $lly=3.7450 $urx=1.5500 $ury=3.7450 $lvl=2
*|S (Y:7 1.5500 3.1900) // $llx=1.5500 $lly=3.1900 $urx=1.5500 $ury=3.1900 $lvl=2
*|S (Y:9 1.5500 3.0150) // $llx=1.5500 $lly=3.0150 $urx=1.5500 $ury=3.0150 $lvl=2
*|S (Y:10 1.5500 2.2850) // $llx=1.5500 $lly=2.2850 $urx=1.5500 $ury=2.2850 $lvl=2
*|S (Y:11 2.9300 3.7450) // $llx=2.9300 $lly=3.7450 $urx=2.9300 $ury=3.7450 $lvl=2
*|S (Y:12 2.9300 3.1900) // $llx=2.9300 $lly=3.1900 $urx=2.9300 $ury=3.1900 $lvl=2
*|S (Y:14 2.9300 3.0150) // $llx=2.9300 $lly=3.0150 $urx=2.9300 $ury=3.0150 $lvl=2
*|S (Y:15 2.9300 2.2850) // $llx=2.9300 $lly=2.2850 $urx=2.9300 $ury=2.2850 $lvl=2
*|S (Y:16 3.7900 3.7450) // $llx=3.7900 $lly=3.7450 $urx=3.7900 $ury=3.7450 $lvl=2
*|S (Y:17 3.7900 3.1900) // $llx=3.7900 $lly=3.1900 $urx=3.7900 $ury=3.1900 $lvl=2
*|S (Y:19 3.7900 3.0150) // $llx=3.7900 $lly=3.0150 $urx=3.7900 $ury=3.0150 $lvl=2
*|S (Y:20 3.7900 2.2850) // $llx=3.7900 $lly=2.2850 $urx=3.7900 $ury=2.2850 $lvl=2
*|S (Y:21 3.7900 1.1550) // $llx=3.7900 $lly=1.1550 $urx=3.7900 $ury=1.1550 $lvl=2
*|S (Y:22 3.7900 0.9900) // $llx=3.7900 $lly=0.9900 $urx=3.7900 $ury=0.9900 $lvl=2
*|S (Y:24 3.7900 0.7750) // $llx=3.7900 $lly=0.7750 $urx=3.7900 $ury=0.7750 $lvl=2
*|S (Y:25 3.7900 0.3950) // $llx=3.7900 $lly=0.3950 $urx=3.7900 $ury=0.3950 $lvl=2
*|S (Y:26 3.7900 0.9900) // $llx=3.7900 $lly=0.9900 $urx=3.7900 $ury=0.9900 $lvl=1
*|S (Y:27 3.7275 1.1350) // $llx=3.7275 $lly=1.1350 $urx=3.7275 $ury=1.1350 $lvl=1
*|S (Y:28 3.7900 3.1900) // $llx=3.7900 $lly=3.1900 $urx=3.7900 $ury=3.1900 $lvl=1
*|S (Y:29 2.9300 3.1900) // $llx=2.9300 $lly=3.1900 $urx=2.9300 $ury=3.1900 $lvl=1
*|S (Y:30 1.5500 3.1900) // $llx=1.5500 $lly=3.1900 $urx=1.5500 $ury=3.1900 $lvl=1
*|S (Y:31 0.6900 3.1900) // $llx=0.6900 $lly=3.1900 $urx=0.6900 $ury=3.1900 $lvl=1
CE1 Mmn3:d VSS! 1.38432e-18 $lvl=4
CE2 Mmp0:d VSS! 1.48002e-18 $lvl=4
CE3 Mmp1:d VSS! 1.5494e-18 $lvl=4
CE4 Mmp3:d VSS! 2.05396e-18 $lvl=4
CE5 Mmp2:d VSS! 7.75207e-19 $lvl=4
CE6 Y:31 VSS! 7.8365e-18 $lvl=1
CE7 Y:30 VSS! 7.29217e-18 $lvl=1
CE8 Y:29 VSS! 6.74092e-18 $lvl=1
CE9 Y:28 VSS! 7.98548e-18 $lvl=1
CE10 Y:26 VSS! 5.92445e-18 $lvl=1
CE11 Y:27 VSS! 5.49539e-18 $lvl=1
CE12 Y:21 VSS! 6.42154e-18 $lvl=2
CE13 Y:25 VSS! 6.06498e-19 $lvl=2
CE14 Y:16 VSS! 4.54871e-18 $lvl=2
CE15 Y:20 VSS! 2.99376e-18 $lvl=2
CE16 Y:11 VSS! 4.45509e-18 $lvl=2
CE17 Y:15 VSS! 4.15761e-18 $lvl=2
CE18 Y:6 VSS! 3.8607e-18 $lvl=2
CE19 Y:10 VSS! 3.55199e-18 $lvl=2
CE20 Y:4 VSS! 5.81813e-18 $lvl=2
CE21 Y:5 VSS! 2.87981e-18 $lvl=2
CE22 Y:2 VSS! 2.1386e-18 $lvl=2
CE23 Y:7 VSS! 8.13725e-19 $lvl=2
CE24 Y:12 VSS! 7.95635e-19 $lvl=2
CE25 Y:22 VSS! 2.30464e-18 $lvl=2
CE26 Y:17 VSS! 7.00757e-19 $lvl=2
CE27 Y VSS! 7.70134e-18 $lvl=1
CE28 Y:26 n1:11 5.02584e-18 $lvl1=1 $lvl2=1
CE29 Y:27 n1:11 4.80013e-18 $lvl1=1 $lvl2=1
CE30 Y n1:11 2.56013e-18 $lvl1=1 $lvl2=1
CE31 Y:30 n1:14 5.70923e-19 $lvl1=1 $lvl2=1
CE32 Y:25 n0:8 6.27835e-18 $lvl1=2 $lvl2=2
CE33 Y:26 n0:8 6.11375e-18 $lvl1=1 $lvl2=2
CE34 Y:25 n0:9 5.60876e-18 $lvl1=2 $lvl2=2
CE35 Y:22 n0:9 4.11078e-18 $lvl1=2 $lvl2=2
CE36 Y:22 n0:8 3.87703e-18 $lvl1=2 $lvl2=2
CE37 Y:27 n0:8 3.65807e-18 $lvl1=1 $lvl2=2
CE38 Y:21 n0:14 3.46043e-18 $lvl1=2 $lvl2=1
CE39 Y:21 n0:16 2.78468e-18 $lvl1=2 $lvl2=1
CE40 Y:27 n0:16 2.63995e-18 $lvl1=1 $lvl2=1
CE41 Y:25 n0:16 2.59425e-18 $lvl1=2 $lvl2=1
CE42 Y:26 n0:9 2.46746e-18 $lvl1=1 $lvl2=2
CE43 Y:22 n0:14 2.34818e-18 $lvl1=2 $lvl2=1
CE44 Y:25 n0:14 2.25419e-18 $lvl1=2 $lvl2=1
CE45 Y:22 n0:16 1.77591e-18 $lvl1=2 $lvl2=1
CE46 Y:27 n0:14 1.71365e-18 $lvl1=1 $lvl2=1
CE47 Y:21 n0:12 1.58098e-18 $lvl1=2 $lvl2=2
CE48 Y:26 n0:12 1.53696e-18 $lvl1=1 $lvl2=2
CE49 Y:27 n0:9 1.45132e-18 $lvl1=1 $lvl2=2
CE50 Y n0:16 1.188e-18 $lvl1=1 $lvl2=1
CE51 Y:25 n0:12 1.18034e-18 $lvl1=2 $lvl2=2
CE52 Y:22 n0:12 1.12187e-18 $lvl1=2 $lvl2=2
CE53 Y n0:8 9.95076e-19 $lvl1=1 $lvl2=2
CE54 Y:26 n0:14 2.12032e-17 $lvl1=1 $lvl2=1
CE55 Y:26 n0:16 3.12718e-17 $lvl1=1 $lvl2=1
CE56 Y:21 n0:9 4.64127e-17 $lvl1=2 $lvl2=2
CE57 Y:21 n0:8 4.5487e-17 $lvl1=2 $lvl2=2
CE58 Y:21 VSS!:4 7.7339e-18 $lvl1=2 $lvl2=2
CE59 Y:25 VSS!:6 2.62672e-18 $lvl1=2 $lvl2=2
CE60 Mmn3:d VSS!:4 2.254e-18 $lvl1=4 $lvl2=2
CE61 Y:26 VSS!:10 2.06385e-18 $lvl1=1 $lvl2=1
CE62 Y:27 VSS!:10 1.67686e-18 $lvl1=1 $lvl2=1
CE63 Y:25 VSS!:10 1.5604e-18 $lvl1=2 $lvl2=1
CE64 Y:28 VSS!:10 1.26646e-18 $lvl1=1 $lvl2=1
CE65 Y VSS!:10 8.47671e-19 $lvl1=1 $lvl2=1
CE66 Y:25 VSS!:4 1.20783e-17 $lvl1=2 $lvl2=2
CE67 Y VDD!:23 8.85296e-18 $lvl1=1 $lvl2=2
CE68 Y:29 VDD!:12 8.55172e-18 $lvl1=1 $lvl2=2
CE69 Y:15 VDD!:23 8.26289e-18 $lvl1=2 $lvl2=2
CE70 Y:5 VDD!:1 8.21536e-18 $lvl1=2 $lvl2=2
CE71 Y:30 VDD!:19 8.20062e-18 $lvl1=1 $lvl2=2
CE72 Y:10 VDD!:12 8.1323e-18 $lvl1=2 $lvl2=2
CE73 Y:5 VDD!:8 8.00269e-18 $lvl1=2 $lvl2=2
CE74 Y VDD! 7.84063e-18 $lvl1=1 $lvl2=1
CE75 Y:20 VDD!:28 7.75877e-18 $lvl1=2 $lvl2=2
CE76 Y:10 VDD!:8 7.13908e-18 $lvl1=2 $lvl2=2
CE77 Y:16 VDD!:31 6.94481e-18 $lvl1=2 $lvl2=1
CE78 Y:6 VDD!:31 6.89709e-18 $lvl1=2 $lvl2=1
CE79 Y:11 VDD!:31 6.82085e-18 $lvl1=2 $lvl2=1
CE80 Y:20 VDD!:23 6.81265e-18 $lvl1=2 $lvl2=2
CE81 Y:15 VDD!:19 6.71254e-18 $lvl1=2 $lvl2=2
CE82 Y:4 VDD!:31 6.21323e-18 $lvl1=2 $lvl2=1
CE83 Y:26 VDD! 6.03818e-18 $lvl1=1 $lvl2=1
CE84 Y:31 VDD!:32 5.94351e-18 $lvl1=1 $lvl2=1
CE85 Y:28 VDD!:30 5.16203e-18 $lvl1=1 $lvl2=1
CE86 Y:27 VDD! 3.71985e-18 $lvl1=1 $lvl2=1
CE87 Y:29 VDD!:14 3.57484e-18 $lvl1=1 $lvl2=2
CE88 Y:30 VDD!:14 3.36219e-18 $lvl1=1 $lvl2=2
CE89 Y:4 VDD!:14 3.02474e-18 $lvl1=2 $lvl2=2
CE90 Y:4 VDD! 2.82018e-18 $lvl1=2 $lvl2=1
CE91 Y VDD!:28 2.60665e-18 $lvl1=1 $lvl2=2
CE92 Y:16 VDD!:14 2.52004e-18 $lvl1=2 $lvl2=2
CE93 Mmp3:d VDD!:21 2.49557e-18 $lvl1=4 $lvl2=2
CE94 Y:2 VDD!:1 2.15342e-18 $lvl1=2 $lvl2=2
CE95 Y VDD!:31 1.88858e-18 $lvl1=1 $lvl2=1
CE96 Mmp3:d VDD!:23 1.81874e-18 $lvl1=4 $lvl2=2
CE97 Y:11 Mmp2@1:s 1.6709e-18 $lvl1=2 $lvl2=4
CE98 Mmp1:d VDD!:12 1.66595e-18 $lvl1=4 $lvl2=2
CE99 Y:17 VDD!:28 1.5973e-18 $lvl1=2 $lvl2=2
CE100 Mmp2:d VDD!:14 1.44716e-18 $lvl1=4 $lvl2=2
CE101 Y:2 VDD!:8 1.42544e-18 $lvl1=2 $lvl2=2
CE102 Y:11 Mmp2:s 1.41821e-18 $lvl1=2 $lvl2=4
CE103 Y:12 VDD!:19 1.41661e-18 $lvl1=2 $lvl2=2
CE104 Y:7 VDD!:12 1.39148e-18 $lvl1=2 $lvl2=2
CE105 Y:17 VDD!:23 1.34816e-18 $lvl1=2 $lvl2=2
CE106 Y:11 VDD!:15 1.34635e-18 $lvl1=2 $lvl2=4
CE107 Y:6 Mmp1@1:s 1.3333e-18 $lvl1=2 $lvl2=4
CE108 Y:28 VDD!:21 1.30468e-18 $lvl1=1 $lvl2=2
CE109 Y:28 VDD!:14 1.29406e-18 $lvl1=1 $lvl2=2
CE110 Y:31 VDD!:4 1.27309e-18 $lvl1=1 $lvl2=2
CE111 Y:31 VDD!:14 1.24944e-18 $lvl1=1 $lvl2=2
CE112 Mmp0:d VDD!:6 1.20681e-18 $lvl1=4 $lvl2=2
CE113 Y:7 VDD!:8 1.20599e-18 $lvl1=2 $lvl2=2
CE114 Y:12 VDD!:23 1.18958e-18 $lvl1=2 $lvl2=2
CE115 Mmp2:d VDD!:19 1.18144e-18 $lvl1=4 $lvl2=2
CE116 Y:28 VDD!:25 1.15321e-18 $lvl1=1 $lvl2=2
CE117 Mmp2:d VDD!:21 1.15015e-18 $lvl1=4 $lvl2=2
CE118 Y:16 Mmp3@1:s 1.10621e-18 $lvl1=2 $lvl2=4
CE119 Y:6 VDD!:19 1.0265e-18 $lvl1=2 $lvl2=2
CE120 Y:11 VDD!:12 1.01661e-18 $lvl1=2 $lvl2=2
CE121 Y:6 VDD!:15 1.01497e-18 $lvl1=2 $lvl2=4
CE122 Y:31 VDD!:6 9.99355e-19 $lvl1=1 $lvl2=2
CE123 Mmp0:d VDD!:1 9.57484e-19 $lvl1=4 $lvl2=2
CE124 Y:30 VDD!:1 9.20019e-19 $lvl1=1 $lvl2=2
CE125 Y:6 Mmp1:s 9.17122e-19 $lvl1=2 $lvl2=4
CE126 Mmp0:d VDD!:8 8.9024e-19 $lvl1=4 $lvl2=2
CE127 Mmp2:d VDD!:23 8.8682e-19 $lvl1=4 $lvl2=2
CE128 Y:4 VDD!:15 8.62307e-19 $lvl1=2 $lvl2=4
CE129 Y:30 VDD!:6 8.54789e-19 $lvl1=1 $lvl2=2
CE130 Y:4 VDD!:32 8.34714e-19 $lvl1=2 $lvl2=1
CE131 Y:16 VDD!:30 8.34011e-19 $lvl1=2 $lvl2=1
CE132 Y:5 VDD! 8.00807e-19 $lvl1=2 $lvl2=1
CE133 Mmp1:d VDD!:14 7.91484e-19 $lvl1=4 $lvl2=2
CE134 Y:21 VDD! 7.65315e-19 $lvl1=2 $lvl2=1
CE135 Y:30 VDD!:32 7.0592e-19 $lvl1=1 $lvl2=1
CE136 Mmp1:d VDD!:8 7.031e-19 $lvl1=4 $lvl2=2
CE137 Y:29 VDD!:21 6.96986e-19 $lvl1=1 $lvl2=2
CE138 Y:29 VDD!:28 6.69861e-19 $lvl1=1 $lvl2=2
CE139 Y:11 VDD! 1.3086e-17 $lvl1=2 $lvl2=1
CE140 Y:16 VDD!:21 1.52574e-17 $lvl1=2 $lvl2=2
CE141 Y:11 VDD!:19 1.0048e-16 $lvl1=2 $lvl2=2
CE142 Y:6 VDD! 1.03233e-17 $lvl1=2 $lvl2=1
CE143 Y:31 VDD!:31 2.24135e-17 $lvl1=1 $lvl2=1
CE144 Y:30 VDD!:31 4.16545e-17 $lvl1=1 $lvl2=1
CE145 Y:30 VDD!:12 2.78279e-17 $lvl1=1 $lvl2=2
CE146 Y:6 VDD!:14 1.56936e-17 $lvl1=2 $lvl2=2
CE147 Y:4 VDD!:6 1.01946e-17 $lvl1=2 $lvl2=2
CE148 Y:30 VDD!:8 1.81098e-17 $lvl1=1 $lvl2=2
CE149 Y:4 VDD!:8 9.50331e-17 $lvl1=2 $lvl2=2
CE150 Y:29 VDD!:31 3.65618e-17 $lvl1=1 $lvl2=1
CE151 Y:16 VDD!:25 1.12949e-17 $lvl1=2 $lvl2=2
CE152 Y:11 VDD!:21 1.26003e-17 $lvl1=2 $lvl2=2
CE153 Y:11 VDD!:23 9.53327e-17 $lvl1=2 $lvl2=2
CE154 Y:31 VDD! 1.63992e-17 $lvl1=1 $lvl2=1
CE155 Y:28 VDD!:31 2.7584e-17 $lvl1=1 $lvl2=1
CE156 Y:30 VDD! 1.17423e-17 $lvl1=1 $lvl2=1
CE157 Y:28 VDD!:28 1.78368e-17 $lvl1=1 $lvl2=2
CE158 Y:11 VDD!:14 1.47791e-17 $lvl1=2 $lvl2=2
CE159 Y:29 VDD! 1.17967e-17 $lvl1=1 $lvl2=1
CE160 Y:31 VDD!:8 1.74055e-17 $lvl1=1 $lvl2=2
CE161 Y:28 VDD! 1.81947e-17 $lvl1=1 $lvl2=1
CE162 Y:28 VDD!:23 2.58814e-17 $lvl1=1 $lvl2=2
CE163 Y:31 VDD!:1 1.67225e-17 $lvl1=1 $lvl2=2
CE164 Y:6 VDD!:8 1.00156e-16 $lvl1=2 $lvl2=2
CE165 Y:4 VDD!:1 9.74372e-17 $lvl1=2 $lvl2=2
CE166 Y:6 VDD!:6 1.32933e-17 $lvl1=2 $lvl2=2
CE167 Y:29 VDD!:23 1.2654e-17 $lvl1=1 $lvl2=2
CE168 Y:16 VDD!:28 1.00166e-16 $lvl1=2 $lvl2=2
CE169 Y:16 VDD!:23 9.7113e-17 $lvl1=2 $lvl2=2
CE170 Y:29 VDD!:19 2.70489e-17 $lvl1=1 $lvl2=2
CE171 Y:16 VDD! 1.43089e-17 $lvl1=2 $lvl2=1
CE172 Y:6 VDD!:12 9.54642e-17 $lvl1=2 $lvl2=2
CE173 Y:4 VDD!:4 1.19368e-17 $lvl1=2 $lvl2=2
ReE78 Y:26 Y:27 0.051056 $metal1  $L=0.145 $W=0.355000 $SI_W=0.355 $TYPE=10 $DIR=1 $LLX=3.550000 $LLY=0.990000 $URX=3.905000 $URY=1.135000 $lvl=1
ReE79 Y:27 Y 0.317308 $metal1  $L=0.66 $W=0.260000 $SI_W=0.26 $TYPE=10 $DIR=1 $LLX=3.550000 $LLY=1.135000 $URX=3.810000 $URY=1.795000 $lvl=1
ReE80 Y Y:28 0.652018 $metal1  $L=1.395 $W=0.260000 $SI_W=0.26 $TYPE=10 $DIR=1 $LLX=3.550000 $LLY=1.795000 $URX=3.810000 $URY=3.190000 $lvl=1
ReE81 Y:28 Y:29 0.370690 $metal1  $L=0.86 $W=0.290000 $SI_W=0.29 $TYPE=10 $DIR=0 $LLX=2.930000 $LLY=3.045000 $URX=3.790000 $URY=3.335000 $lvl=1
ReE82 Y:29 Y:30 0.594828 $metal1  $L=1.38 $W=0.290000 $SI_W=0.29 $TYPE=10 $DIR=0 $LLX=1.550000 $LLY=3.045000 $URX=2.930000 $URY=3.335000 $lvl=1
ReE83 Y:30 Y:31 0.370690 $metal1  $L=0.86 $W=0.290000 $SI_W=0.29 $TYPE=10 $DIR=0 $LLX=0.690000 $LLY=3.045000 $URX=1.550000 $URY=3.335000 $lvl=1
RfE84 Y:1 Y:2 41.788235 $li  $L=0.555 $W=0.170000 $SI_W=0.17 $TYPE=10 $DIR=1 $LLX=0.605000 $LLY=3.190000 $URX=0.775000 $URY=3.745000 $lvl=2
RfE85 Y:2 Y:4 13.176471 $li  $L=0.175 $W=0.170000 $SI_W=0.17 $TYPE=10 $DIR=1 $LLX=0.605000 $LLY=3.015000 $URX=0.775000 $URY=3.190000 $lvl=2
RfE86 Y:4 Y:5 54.964703 $li  $L=0.73 $W=0.170000 $SI_W=0.17 $TYPE=10 $DIR=1 $LLX=0.605000 $LLY=2.285000 $URX=0.775000 $URY=3.015000 $lvl=2
RfE87 Y:6 Y:7 41.788235 $li  $L=0.555 $W=0.170000 $SI_W=0.17 $TYPE=10 $DIR=1 $LLX=1.465000 $LLY=3.190000 $URX=1.635000 $URY=3.745000 $lvl=2
RfE88 Y:7 Y:9 13.176471 $li  $L=0.175 $W=0.170000 $SI_W=0.17 $TYPE=10 $DIR=1 $LLX=1.465000 $LLY=3.015000 $URX=1.635000 $URY=3.190000 $lvl=2
RfE89 Y:9 Y:10 54.964703 $li  $L=0.73 $W=0.170000 $SI_W=0.17 $TYPE=10 $DIR=1 $LLX=1.465000 $LLY=2.285000 $URX=1.635000 $URY=3.015000 $lvl=2
RfE90 Y:11 Y:12 41.788235 $li  $L=0.555 $W=0.170000 $SI_W=0.17 $TYPE=10 $DIR=1 $LLX=2.845000 $LLY=3.190000 $URX=3.015000 $URY=3.745000 $lvl=2