*
*|DSPF 1.5
*
*|DATE "Wed Jan  8 20:46:17 2025"
*|VENDOR "Cadence Design Systems"
*|PROGRAM "Cadence Quantus Extraction"
*|VERSION "22.1.0-p089 Linux 64 bit - (Thu Jan 19 11:47:08 PST 2023)"
*|DESIGN NAND4X4_HS
*|DIVIDER /
*|DELIMITER :
*|DeviceFingerDelim "@"
*|BUSBIT []
*|GLOBAL_TEMPERATURE 25
*|OPERATING_TEMPERATURE 25

** *VIA_COVERAGE_CODES
** *index FF FS FP FU SF SS SP SU PF PS PP PU UF US UP UU X_by_Y
** * "FF" stands for Full landing and Full coverage
** *0 0 0 0 0 0 0 0 0 0 0 0 0 0 0 0 0
** *1 0 0 0 0 0 0 0 0 0 0 0 0 0 0 0 1 1x1
** *2 0 0 0 0 0 0 0 0 0 0 0 0 0 0 1 0 1x1
** *3 0 0 0 0 0 0 0 0 0 0 0 0 0 1 0 0 1x1
** *4 0 0 0 0 0 0 0 0 0 0 0 0 1 0 0 0 1x1
** *5 0 0 0 0 0 0 0 0 0 0 0 1 0 0 0 0 1x1
** *6 0 0 0 0 0 0 0 0 0 0 1 0 0 0 0 0 1x1
** *7 0 0 0 0 0 0 0 0 0 1 0 0 0 0 0 0 1x1
** *8 0 0 0 0 0 0 0 0 1 0 0 0 0 0 0 0 1x1
** *9 0 0 0 0 0 0 0 1 0 0 0 0 0 0 0 0 1x1
** *10 0 0 0 0 0 0 1 0 0 0 0 0 0 0 0 0 1x1
** *11 0 0 0 0 0 1 0 0 0 0 0 0 0 0 0 0 1x1
** *12 0 0 0 0 1 0 0 0 0 0 0 0 0 0 0 0 1x1
** *13 0 0 0 1 0 0 0 0 0 0 0 0 0 0 0 0 1x1
** *14 0 0 1 0 0 0 0 0 0 0 0 0 0 0 0 0 1x1
** *15 0 1 0 0 0 0 0 0 0 0 0 0 0 0 0 0 1x1
** *16 1 0 0 0 0 0 0 0 0 0 0 0 0 0 0 0 1x1

** *RESISTOR_TYPES
** *1 SHORTING_ELEMENT
** *2 PRES_NG
** *3 PRES_PG
** *4 PRES_NF
** *5 PRES_PF
** *6 TCN_NDIFF
** *7 TCN_PDIFF
** *8 TCN_NFIELD
** *9 TCN_PFIELD
** *10 QUALITY_EXTRACTED
** *11 GCNLAND
** *12 TCNLAND
** *13 DUMMY
** *14 RSD
** *15 BRIDGE

** *RESISTOR_CURRENT_DIRECTION
** *0 HORIZONTAL
** *1 VERTICAL
** *2 45 DEGREE

** QRC_TECH_DIR /vols/wfo_devel/projects/reference_SKY130/tech/sky130_release_0.0.4/quantus/extraction/typical 
** HIERARCHICAL_SPLIT_PINS_DELIMITER '%'
** caps2d version: 10
*
.SUBCKT  NAND4X4_HS A B C D Y
*
*Net Section
*
*|GROUND_NET VSS!
*
*LAYER_MAP
*0 none
*1 metal1
*2 li
*3 poly
*4 diff
*5 licon_diff
*6 mcon
*7 licon
*8 FOX

*|NET A 3.62529e-15
*|P (A X 0 0.9350 1.8300) // $llx=0.9350 $lly=1.8300 $urx=0.9350 $ury=1.8300 $lvl=1
*|I (Mmp0@1:g Mmp0@1 g X 0 0.4750 3.0150) // $llx=0.4750 $lly=3.0150 $urx=0.4750 $ury=3.0150 $lvl=3
*|I (Mmp0@3:g Mmp0@3 g X 0 0.9050 3.0150) // $llx=0.9050 $lly=3.0150 $urx=0.9050 $ury=3.0150 $lvl=3
*|I (Mmp0:g Mmp0 g X 0 1.3350 3.0150) // $llx=1.3350 $lly=3.0150 $urx=1.3350 $ury=3.0150 $lvl=3
*|I (Mmp0@2:g Mmp0@2 g X 0 1.7650 3.0150) // $llx=1.7650 $lly=3.0150 $urx=1.7650 $ury=3.0150 $lvl=3
*|I (Mmn0@1:g Mmn0@1 g X 0 0.4750 0.7750) // $llx=0.4750 $lly=0.7750 $urx=0.4750 $ury=0.7750 $lvl=3
*|I (Mmn0@3:g Mmn0@3 g X 0 0.9050 0.7750) // $llx=0.9050 $lly=0.7750 $urx=0.9050 $ury=0.7750 $lvl=3
*|I (Mmn0:g Mmn0 g X 0 1.3350 0.7750) // $llx=1.3350 $lly=0.7750 $urx=1.3350 $ury=0.7750 $lvl=3
*|I (Mmn0@2:g Mmn0@2 g X 0 1.7650 0.7750) // $llx=1.7650 $lly=0.7750 $urx=1.7650 $ury=0.7750 $lvl=3
*|S (A:29 1.7650 3.8950) // $llx=1.7650 $lly=3.8950 $urx=1.7650 $ury=3.8950 $lvl=3
*|S (A:30 1.7650 1.4300) // $llx=1.7650 $lly=1.4300 $urx=1.7650 $ury=1.4300 $lvl=3
*|S (A:31 1.3350 1.4300) // $llx=1.3350 $lly=1.4300 $urx=1.3350 $ury=1.4300 $lvl=3
*|S (A:32 1.1200 1.4300) // $llx=1.1200 $lly=1.4300 $urx=1.1200 $ury=1.4300 $lvl=3
*|S (A:33 0.9050 1.4300) // $llx=0.9050 $lly=1.4300 $urx=0.9050 $ury=1.4300 $lvl=3
*|S (A:34 0.4750 1.4300) // $llx=0.4750 $lly=1.4300 $urx=0.4750 $ury=1.4300 $lvl=3
*|S (A:35 1.7650 0.2450) // $llx=1.7650 $lly=0.2450 $urx=1.7650 $ury=0.2450 $lvl=3
*|S (A:36 1.3350 0.2450) // $llx=1.3350 $lly=0.2450 $urx=1.3350 $ury=0.2450 $lvl=3
*|S (A:37 1.3350 3.8950) // $llx=1.3350 $lly=3.8950 $urx=1.3350 $ury=3.8950 $lvl=3
*|S (A:38 0.9050 0.2450) // $llx=0.9050 $lly=0.2450 $urx=0.9050 $ury=0.2450 $lvl=3
*|S (A:39 0.9050 3.8950) // $llx=0.9050 $lly=3.8950 $urx=0.9050 $ury=3.8950 $lvl=3
*|S (A:40 0.4750 3.8950) // $llx=0.4750 $lly=3.8950 $urx=0.4750 $ury=3.8950 $lvl=3
*|S (A:41 0.4750 0.2450) // $llx=0.4750 $lly=0.2450 $urx=0.4750 $ury=0.2450 $lvl=3
*|S (A:42 1.1200 1.4300) // $llx=1.1200 $lly=1.4300 $urx=1.1200 $ury=1.4300 $lvl=2
*|S (A:43 0.9200 1.4300) // $llx=0.9200 $lly=1.4300 $urx=0.9200 $ury=1.4300 $lvl=2
*|S (A:44 0.9200 2.4750) // $llx=0.9200 $lly=2.4750 $urx=0.9200 $ury=2.4750 $lvl=1
*|S (A:45 0.9200 1.4300) // $llx=0.9200 $lly=1.4300 $urx=0.9200 $ury=1.4300 $lvl=1
*|S (A:46 0.9200 1.2350) // $llx=0.9200 $lly=1.2350 $urx=0.9200 $ury=1.2350 $lvl=1
CA1 Mmn0@2:g VSS! 3.63902e-18 $lvl=3
CA2 Mmn0:g VSS! 4.08194e-18 $lvl=3
CA3 Mmn0@3:g VSS! 3.41299e-18 $lvl=3
CA4 Mmn0@1:g VSS! 2.92605e-18 $lvl=3
CA5 Mmp0:g VSS! 3.07227e-18 $lvl=3
CA6 A:45 VSS! 1.58041e-17 $lvl=1
CA7 A:44 VSS! 1.51261e-17 $lvl=1
CA8 A:29 VSS! 4.19292e-18 $lvl=3
CA9 A:39 VSS! 2.67841e-18 $lvl=3
CA10 A:40 VSS! 1.46661e-18 $lvl=3
CA11 A:42 VSS! 1.62824e-17 $lvl=2
CA12 A:43 VSS! 6.17244e-18 $lvl=2
CA13 A:32 VSS! 4.88088e-17 $lvl=3
CA14 A:42 n2 6.44325e-18 $lvl1=2 $lvl2=2
CA15 A:42 n2:11 5.30936e-18 $lvl1=2 $lvl2=2
CA16 A:44 n2:29 5.12131e-18 $lvl1=1 $lvl2=1
CA17 A:32 n2 5.04772e-18 $lvl1=3 $lvl2=2
CA18 A:42 n2:32 4.15647e-18 $lvl1=2 $lvl2=1
CA19 A:32 n2:11 3.8554e-18 $lvl1=3 $lvl2=2
CA20 A:43 n2:6 3.69453e-18 $lvl1=2 $lvl2=2
CA21 A:44 n2:32 3.53519e-18 $lvl1=1 $lvl2=1
CA22 A:42 n2:9 3.47967e-18 $lvl1=2 $lvl2=2
CA23 A:45 n2:27 3.47561e-18 $lvl1=1 $lvl2=1
CA24 A:45 n2:9 3.40662e-18 $lvl1=1 $lvl2=2
CA25 A:42 n2:27 3.21256e-18 $lvl1=2 $lvl2=1
CA26 A:42 n2:29 2.88806e-18 $lvl1=2 $lvl2=1
CA27 A:44 n2:27 2.85503e-18 $lvl1=1 $lvl2=1
CA28 A:43 n2:9 2.48838e-18 $lvl1=2 $lvl2=2
CA29 A:32 Mmn0@3:d 2.43026e-18 $lvl1=3 $lvl2=4
CA30 A:43 n2:32 1.70732e-18 $lvl1=2 $lvl2=1
CA31 A:42 n2:4 1.62835e-18 $lvl1=2 $lvl2=2
CA32 A:42 n2:14 1.31094e-18 $lvl1=2 $lvl2=2
CA33 A:45 n2 1.15398e-18 $lvl1=1 $lvl2=2
CA34 A:44 n2 1.09181e-18 $lvl1=1 $lvl2=2
CA35 A:45 n2:4 1.05463e-18 $lvl1=1 $lvl2=2
CA36 A:45 n2:6 1.05408e-18 $lvl1=1 $lvl2=2
CA37 A:43 n2:29 9.99789e-19 $lvl1=2 $lvl2=1
CA38 A:32 Mmn0@1:d 9.20893e-19 $lvl1=3 $lvl2=4
CA39 A:32 n2:29 7.7062e-19 $lvl1=3 $lvl2=1
CA40 A:45 n2:32 3.56678e-17 $lvl1=1 $lvl2=1
CA41 A:42 n2:6 1.5646e-17 $lvl1=2 $lvl2=2
CA42 A:45 n2:29 1.27124e-17 $lvl1=1 $lvl2=1
CA43 Mmn0@1:g n2 1.32046e-16 $lvl1=3 $lvl2=2
CA44 A:32 n2:6 1.47401e-17 $lvl1=3 $lvl2=2
CA45 Mmn0:g n2:6 1.27054e-16 $lvl1=3 $lvl2=2
CA46 Mmn0@2:g n2:11 1.25698e-16 $lvl1=3 $lvl2=2
CA47 Mmn0@3:g n2:6 1.26137e-16 $lvl1=3 $lvl2=2
CA48 Mmn0@2:g VSS!:7 8.96259e-18 $lvl1=3 $lvl2=2
CA49 Mmn0@1:g VSS!:8 7.82867e-18 $lvl1=3 $lvl2=2
CA50 Mmn0:g VSS!:7 7.77846e-18 $lvl1=3 $lvl2=2
CA51 Mmn0@3:g VSS!:8 6.72249e-18 $lvl1=3 $lvl2=2
CA52 A:43 VSS!:15 5.46169e-18 $lvl1=2 $lvl2=2
CA53 A:45 VSS!:15 3.51325e-18 $lvl1=1 $lvl2=2
CA54 A:32 Mmn0@1:s 2.68238e-18 $lvl1=3 $lvl2=4
CA55 A:44 VSS!:18 2.1147e-18 $lvl1=1 $lvl2=1
CA56 Mmn0@3:g VSS!:15 1.23674e-16 $lvl1=3 $lvl2=2
CA57 A:32 VSS!:15 1.41067e-17 $lvl1=3 $lvl2=2
CA58 Mmn0@1:g VSS!:15 1.2717e-16 $lvl1=3 $lvl2=2
CA59 A:32 VSS!:12 1.44362e-17 $lvl1=3 $lvl2=2
CA60 Mmn0@2:g VSS!:12 1.2629e-16 $lvl1=3 $lvl2=2
CA61 A:42 VSS!:12 1.68932e-17 $lvl1=2 $lvl2=2
CA62 Mmn0:g VSS!:12 1.27505e-16 $lvl1=3 $lvl2=2
CA63 A:42 VSS!:15 1.34118e-17 $lvl1=2 $lvl2=2
CA64 A:45 VDD! 9.0109e-18 $lvl1=1 $lvl2=1
CA65 A:40 VDD!:4 7.9859e-18 $lvl1=3 $lvl2=2
CA66 A:29 VDD!:6 7.73668e-18 $lvl1=3 $lvl2=2
CA67 Mmp0:g VDD!:5 7.19446e-18 $lvl1=3 $lvl2=2
CA68 A:39 VDD!:5 7.17614e-18 $lvl1=3 $lvl2=2
CA69 A:32 VDD! 6.03876e-18 $lvl1=3 $lvl2=1
CA70 A:42 VDD! 4.64324e-18 $lvl1=2 $lvl2=1
CA71 A:44 VDD!:48 3.75572e-18 $lvl1=1 $lvl2=1
CA72 A:32 VDD!:20 2.83381e-18 $lvl1=3 $lvl2=2
CA73 A:29 VDD!:5 2.75394e-18 $lvl1=3 $lvl2=2
CA74 A:42 VDD!:20 2.59843e-18 $lvl1=2 $lvl2=2
CA75 A:44 VDD!:23 2.57996e-18 $lvl1=1 $lvl2=2
CA76 A:32 VDD!:1 2.18571e-18 $lvl1=3 $lvl2=2
CA77 A:32 VDD!:23 1.94111e-18 $lvl1=3 $lvl2=2
CA78 A:45 VDD!:1 1.79024e-18 $lvl1=1 $lvl2=2
CA79 A:42 VDD!:1 1.64437e-18 $lvl1=2 $lvl2=2
CA80 A:40 VDD!:5 1.45648e-18 $lvl1=3 $lvl2=2
CA81 A:39 VDD!:4 1.34072e-18 $lvl1=3 $lvl2=2
CA82 A:40 VDD!:20 1.11915e-18 $lvl1=3 $lvl2=2
CA83 Mmp0:g VDD!:20 2.5632e-16 $lvl1=3 $lvl2=2
CA84 A:44 VDD!:20 1.70738e-17 $lvl1=1 $lvl2=2
CA85 A:40 VDD!:1 2.58024e-16 $lvl1=3 $lvl2=2
CA86 A:44 VDD! 1.96038e-17 $lvl1=1 $lvl2=1
CA87 A:44 VDD!:1 1.05551e-17 $lvl1=1 $lvl2=2
CA88 A:29 VDD!:23 2.49733e-16 $lvl1=3 $lvl2=2
CA89 A:39 VDD!:20 2.51903e-16 $lvl1=3 $lvl2=2
CA90 A:44 Y:62 9.27672e-18 $lvl1=1 $lvl2=1
CA91 A:44 Y:1 8.67522e-18 $lvl1=1 $lvl2=2
CA92 A:44 Y:5 6.25673e-18 $lvl1=1 $lvl2=2
CA93 A:44 Y:6 4.03698e-18 $lvl1=1 $lvl2=2
CA94 A:44 Y:10 2.9541e-18 $lvl1=1 $lvl2=2
CA95 A:32 Y:10 1.84649e-18 $lvl1=3 $lvl2=2
CA96 A:44 Y:61 1.81857e-18 $lvl1=1 $lvl2=1
CA97 A:42 Y:10 1.54783e-18 $lvl1=2 $lvl2=2
CA98 Mmp0:g Y:10 1.37843e-18 $lvl1=3 $lvl2=2
CA99 A:32 Y:5 1.37664e-18 $lvl1=3 $lvl2=2
CA100 A:32 Y:6 1.30864e-18 $lvl1=3 $lvl2=2
CA101 A:42 Y:6 1.2676e-18 $lvl1=2 $lvl2=2
CA102 A:32 Y:1 1.24445e-18 $lvl1=3 $lvl2=2
CA103 A:29 Y:10 1.0853e-18 $lvl1=3 $lvl2=2
CA104 A:40 Y:5 1.05426e-18 $lvl1=3 $lvl2=2
CA105 A:39 Y:5 1.05064e-18 $lvl1=3 $lvl2=2
CA106 A:45 Y:63 9.79569e-19 $lvl1=1 $lvl2=1
CA107 Mmp0:g Y:1 9.23508e-19 $lvl1=3 $lvl2=2
CA108 A:40 Y:1 2.54783e-16 $lvl1=3 $lvl2=2
CA109 A:29 Y:6 2.5208e-16 $lvl1=3 $lvl2=2
CA110 A:44 Y:63 1.41919e-17 $lvl1=1 $lvl2=1
CA111 Mmp0:g Y:6 2.55213e-16 $lvl1=3 $lvl2=2
CA112 A:39 Y:1 2.57263e-16 $lvl1=3 $lvl2=2
CA113 A:42 B:42 2.91928e-18 $lvl1=2 $lvl2=2
CA114 A:44 B:44 2.75387e-18 $lvl1=1 $lvl2=1
ReA1 A:44 A 0.310096 $metal1  $L=0.645 $W=0.260000 $SI_W=0.26 $TYPE=10 $DIR=1 $LLX=0.790000 $LLY=1.830000 $URX=1.050000 $URY=2.475000 $lvl=1
ReA2 A A:45 0.192308 $metal1  $L=0.4 $W=0.260000 $SI_W=0.26 $TYPE=10 $DIR=1 $LLX=0.790000 $LLY=1.430000 $URX=1.050000 $URY=1.830000 $lvl=1
ReA3 A:45 A:46 0.093750 $metal1  $L=0.195 $W=0.260000 $SI_W=0.26 $TYPE=10 $DIR=1 $LLX=0.790000 $LLY=1.235000 $URX=1.050000 $URY=1.430000 $lvl=1
RfA4 A:42 A:43 15.058825 $li  $L=0.2 $W=0.170000 $SI_W=0.17 $TYPE=10 $DIR=0 $LLX=0.920000 $LLY=1.345000 $URX=1.120000 $URY=1.515000 $lvl=2
RgA5 A:29 Mmp0@2:g 282.773346 $poly  $L=0.88 $W=0.150000 $SI_W=0.15 $TYPE=10 $DIR=1 $LLX=1.690000 $LLY=3.015000 $URX=1.840000 $URY=3.895000 $lvl=3
RgA6 Mmp0@2:g A:30 509.233002 $poly  $L=1.58475 $W=0.150000 $SI_W=0.15 $TYPE=10 $DIR=1 $LLX=1.690000 $LLY=1.430000 $URX=1.840000 $URY=3.015000 $lvl=3
RgA7 A:30 A:31 76.762962 $poly  $L=0.43 $W=0.270000 $SI_W=0.27 $TYPE=10 $DIR=0 $LLX=1.335000 $LLY=1.295000 $URX=1.765000 $URY=1.565000 $lvl=3
RgA8 A:31 A:32 38.426109 $poly  $L=0.21525 $W=0.270000 $SI_W=0.27 $TYPE=10 $DIR=0 $LLX=1.120000 $LLY=1.295000 $URX=1.335000 $URY=1.565000 $lvl=3
RgA9 A:32 A:33 38.336849 $poly  $L=0.21475 $W=0.270000 $SI_W=0.27 $TYPE=10 $DIR=0 $LLX=0.905000 $LLY=1.295000 $URX=1.120000 $URY=1.565000 $lvl=3
RgA10 A:33 A:34 76.762962 $poly  $L=0.43 $W=0.270000 $SI_W=0.27 $TYPE=10 $DIR=0 $LLX=0.475000 $LLY=1.295000 $URX=0.905000 $URY=1.565000 $lvl=3
RgA11 A:34 Mmn0@1:g 210.553665 $poly  $L=0.65525 $W=0.150000 $SI_W=0.15 $TYPE=10 $DIR=1 $LLX=0.400000 $LLY=0.775000 $URX=0.550000 $URY=1.430000 $lvl=3
RgA12 A:30 Mmn0@2:g 210.553665 $poly  $L=0.65525 $W=0.150000 $SI_W=0.15 $TYPE=10 $DIR=1 $LLX=1.690000 $LLY=0.775000 $URX=1.840000 $URY=1.430000 $lvl=3
RgA13 Mmn0@2:g A:35 170.306671 $poly  $L=0.53 $W=0.150000 $SI_W=0.15 $TYPE=10 $DIR=1 $LLX=1.690000 $LLY=0.245000 $URX=1.840000 $URY=0.775000 $lvl=3
RgA14 A:31 Mmn0:g 191.237961 $poly  $L=0.65525 $W=0.150000 $SI_W=0.15 $TYPE=10 $DIR=1 $LLX=1.260000 $LLY=0.775000 $URX=1.410000 $URY=1.430000 $lvl=3
RgA15 Mmn0:g A:36 170.306671 $poly  $L=0.53 $W=0.150000 $SI_W=0.15 $TYPE=10 $DIR=1 $LLX=1.260000 $LLY=0.245000 $URX=1.410000 $URY=0.775000 $lvl=3
RgA16 A:31 Mmp0:g 489.988708 $poly  $L=1.58475 $W=0.150000 $SI_W=0.15 $TYPE=10 $DIR=1 $LLX=1.260000 $LLY=1.430000 $URX=1.410000 $URY=3.015000 $lvl=3
RgA17 Mmp0:g A:37 282.773346 $poly  $L=0.88 $W=0.150000 $SI_W=0.15 $TYPE=10 $DIR=1 $LLX=1.260000 $LLY=3.015000 $URX=1.410000 $URY=3.895000 $lvl=3
RgA18 A:33 Mmn0@3:g 191.237961 $poly  $L=0.65525 $W=0.150000 $SI_W=0.15 $TYPE=10 $DIR=1 $LLX=0.830000 $LLY=0.775000 $URX=0.980000 $URY=1.430000 $lvl=3
RgA19 Mmn0@3:g A:38 170.306671 $poly  $L=0.53 $W=0.150000 $SI_W=0.15 $TYPE=10 $DIR=1 $LLX=0.830000 $LLY=0.245000 $URX=0.980000 $URY=0.775000 $lvl=3
RgA20 A:33 Mmp0@3:g 489.988708 $poly  $L=1.58475 $W=0.150000 $SI_W=0.15 $TYPE=10 $DIR=1 $LLX=0.830000 $LLY=1.430000 $URX=0.980000 $URY=3.015000 $lvl=3
RgA21 Mmp0@3:g A:39 282.773346 $poly  $L=0.88 $W=0.150000 $SI_W=0.15 $TYPE=10 $DIR=1 $LLX=0.830000 $LLY=3.015000 $URX=0.980000 $URY=3.895000 $lvl=3
RgA22 A:34 Mmp0@1:g 509.233002 $poly  $L=1.58475 $W=0.150000 $SI_W=0.15 $TYPE=10 $DIR=1 $LLX=0.400000 $LLY=1.430000 $URX=0.550000 $URY=3.015000 $lvl=3
RgA23 Mmp0@1:g A:40 282.773346 $poly  $L=0.88 $W=0.150000 $SI_W=0.15 $TYPE=10 $DIR=1 $LLX=0.400000 $LLY=3.015000 $URX=0.550000 $URY=3.895000 $lvl=3
RgA24 Mmn0@1:g A:41 170.306671 $poly  $L=0.53 $W=0.150000 $SI_W=0.15 $TYPE=10 $DIR=1 $LLX=0.400000 $LLY=0.245000 $URX=0.550000 $URY=0.775000 $lvl=3
RjA25 A:43 A:45 152.000000 $mcon  $L=0.17 $W=0.17 $A=0.0289 $VC=0 $SAVL=0 $SAVC=0 $SI_A=0.0289 $COVER_DIR=0 $LLX=0.000000 $LLY=0.000000 $URX=0.170000 $URY=0.170000 $lvl=6
RiA26 A:32 A:42 5.000000 $licon  $A=0.0867 $VC=0 $SAVL=0 $SAVC=0 $SI_A=0.0867 $COVER_DIR=0 $LLX=0.000000 $LLY=0.000000 $URX=-0.086700 $URY=-3.000000 $lvl=7
*
*|NET VSS! 4.14145e-15
*|P (VSS! X 0 4.8250 0.0050) // $llx=4.8250 $lly=0.0050 $urx=4.8250 $ury=0.0050 $lvl=1
*|I (Mmn2@1:b Mmn2@1 b X 0 4.4350 0.7750) // $llx=4.4350 $lly=0.7750 $urx=4.4350 $ury=0.7750 $lvl=8
*|I (Mmn2@2:b Mmn2@2 b X 0 4.8650 0.7750) // $llx=4.8650 $lly=0.7750 $urx=4.8650 $ury=0.7750 $lvl=8
*|I (Mmn2:b Mmn2 b X 0 5.2950 0.7750) // $llx=5.2950 $lly=0.7750 $urx=5.2950 $ury=0.7750 $lvl=8
*|I (Mmn2@3:b Mmn2@3 b X 0 5.7250 0.7750) // $llx=5.7250 $lly=0.7750 $urx=5.7250 $ury=0.7750 $lvl=8
*|I (Mmn0@1:s Mmn0@1 s X 0 0.5505 0.7750) // $llx=0.5505 $lly=0.7750 $urx=0.5505 $ury=0.7750 $lvl=4
*|I (Mmn0@1:b Mmn0@1 b X 0 0.4750 0.7750) // $llx=0.4750 $lly=0.7750 $urx=0.4750 $ury=0.7750 $lvl=8
*|I (Mmn0@3:s Mmn0@3 s X 0 0.8295 0.7750) // $llx=0.8295 $lly=0.7750 $urx=0.8295 $ury=0.7750 $lvl=4
*|I (Mmn0@3:b Mmn0@3 b X 0 0.9050 0.7750) // $llx=0.9050 $lly=0.7750 $urx=0.9050 $ury=0.7750 $lvl=8
*|I (Mmn0:s Mmn0 s X 0 1.4105 0.7750) // $llx=1.4105 $lly=0.7750 $urx=1.4105 $ury=0.7750 $lvl=4
*|I (Mmn0:b Mmn0 b X 0 1.3350 0.7750) // $llx=1.3350 $lly=0.7750 $urx=1.3350 $ury=0.7750 $lvl=8
*|I (Mmn0@2:s Mmn0@2 s X 0 1.6895 0.7750) // $llx=1.6895 $lly=0.7750 $urx=1.6895 $ury=0.7750 $lvl=4
*|I (Mmn0@2:b Mmn0@2 b X 0 1.7650 0.7750) // $llx=1.7650 $lly=0.7750 $urx=1.7650 $ury=0.7750 $lvl=8
*|I (Mmn3@2:b Mmn3@2 b X 0 6.1550 0.7750) // $llx=6.1550 $lly=0.7750 $urx=6.1550 $ury=0.7750 $lvl=8
*|I (Mmn3:b Mmn3 b X 0 6.5850 0.7750) // $llx=6.5850 $lly=0.7750 $urx=6.5850 $ury=0.7750 $lvl=8
*|I (Mmn3@3:b Mmn3@3 b X 0 7.0150 0.7750) // $llx=7.0150 $lly=0.7750 $urx=7.0150 $ury=0.7750 $lvl=8
*|I (Mmn3@1:b Mmn3@1 b X 0 7.4450 0.7750) // $llx=7.4450 $lly=0.7750 $urx=7.4450 $ury=0.7750 $lvl=8
*|I (Mmn1@3:b Mmn1@3 b X 0 2.1950 0.7750) // $llx=2.1950 $lly=0.7750 $urx=2.1950 $ury=0.7750 $lvl=8
*|I (Mmn1:b Mmn1 b X 0 2.6250 0.7750) // $llx=2.6250 $lly=0.7750 $urx=2.6250 $ury=0.7750 $lvl=8
*|I (Mmn1@2:b Mmn1@2 b X 0 3.0550 0.7750) // $llx=3.0550 $lly=0.7750 $urx=3.0550 $ury=0.7750 $lvl=8
*|I (Mmn1@1:b Mmn1@1 b X 0 3.4850 0.7750) // $llx=3.4850 $lly=0.7750 $urx=3.4850 $ury=0.7750 $lvl=8
*|S (VSS!:1 8.2800 0.0000) // $llx=8.2800 $lly=0.0000 $urx=8.2800 $ury=0.0000 $lvl=2
*|S (VSS!:2 7.5900 0.0000) // $llx=7.5900 $lly=0.0000 $urx=7.5900 $ury=0.0000 $lvl=2
*|S (VSS!:3 7.5900 0.0000) // $llx=7.5900 $lly=0.0000 $urx=7.5900 $ury=0.0000 $lvl=4
*|S (VSS!:5 3.6800 0.0000) // $llx=3.6800 $lly=0.0000 $urx=3.6800 $ury=0.0000 $lvl=2
*|S (VSS!:7 1.5500 0.0000) // $llx=1.5500 $lly=0.0000 $urx=1.5500 $ury=0.0000 $lvl=2
*|S (VSS!:8 0.6900 0.0000) // $llx=0.6900 $lly=0.0000 $urx=0.6900 $ury=0.0000 $lvl=2
*|S (VSS!:9 0.0000 0.0000) // $llx=0.0000 $lly=0.0000 $urx=0.0000 $ury=0.0000 $lvl=2
*|S (VSS!:11 1.5500 0.7750) // $llx=1.5500 $lly=0.7750 $urx=1.5500 $ury=0.7750 $lvl=2
*|S (VSS!:12 1.5500 1.1550) // $llx=1.5500 $lly=1.1550 $urx=1.5500 $ury=1.1550 $lvl=2
*|S (VSS!:14 0.6900 0.7750) // $llx=0.6900 $lly=0.7750 $urx=0.6900 $ury=0.7750 $lvl=2
*|S (VSS!:15 0.6900 1.1550) // $llx=0.6900 $lly=1.1550 $urx=0.6900 $ury=1.1550 $lvl=2
*|S (VSS!:16 8.2800 0.0000) // $llx=8.2800 $lly=0.0000 $urx=8.2800 $ury=0.0000 $lvl=1
*|S (VSS!:17 7.5900 0.0000) // $llx=7.5900 $lly=0.0000 $urx=7.5900 $ury=0.0000 $lvl=1
*|S (VSS!:18 3.6800 0.0000) // $llx=3.6800 $lly=0.0000 $urx=3.6800 $ury=0.0000 $lvl=1
*|S (VSS!:19 0.0000 0.0000) // $llx=0.0000 $lly=0.0000 $urx=0.0000 $ury=0.0000 $lvl=1
ReG248 VSS!:16 VSS!:17 0.215625 $metal1  $L=0.69 $W=0.400000 $SI_W=0.4 $TYPE=10 $DIR=0 $LLX=7.590000 $LLY=-0.199500 $URX=8.280000 $URY=0.200000 $lvl=1
ReG249 VSS!:17 VSS! 0.864063 $metal1  $L=2.765 $W=0.400000 $SI_W=0.4 $TYPE=10 $DIR=0 $LLX=4.825000 $LLY=-0.199500 $URX=7.590000 $URY=0.200000 $lvl=1
ReG250 VSS! VSS!:18 0.357812 $metal1  $L=1.145 $W=0.400000 $SI_W=0.4 $TYPE=10 $DIR=0 $LLX=3.680000 $LLY=-0.199500 $URX=4.825000 $URY=0.200000 $lvl=1
ReG251 VSS!:18 VSS!:19 1.150000 $metal1  $L=3.68 $W=0.400000 $SI_W=0.4 $TYPE=10 $DIR=0 $LLX=0.000000 $LLY=-0.199500 $URX=3.680000 $URY=0.200000 $lvl=1
RfG252 VSS!:1 VSS!:2 35.327999 $li  $L=0.69 $W=0.250000 $SI_W=0.25 $TYPE=10 $DIR=0 $LLX=7.590000 $LLY=-0.124500 $URX=8.280000 $URY=0.125000 $lvl=2
RfG253 VSS!:2 VSS!:5 200.192001 $li  $L=3.91 $W=0.250000 $SI_W=0.25 $TYPE=10 $DIR=0 $LLX=3.680000 $LLY=-0.124500 $URX=7.590000 $URY=0.125000 $lvl=2
RfG254 VSS!:5 VSS!:7 109.043198 $li  $L=2.12975 $W=0.250000 $SI_W=0.25 $TYPE=10 $DIR=0 $LLX=1.550000 $LLY=-0.124500 $URX=3.680000 $URY=0.125000 $lvl=2
RfG255 VSS!:7 VSS!:8 44.031998 $li  $L=0.86 $W=0.250000 $SI_W=0.25 $TYPE=10 $DIR=0 $LLX=0.690000 $LLY=-0.124500 $URX=1.550000 $URY=0.125000 $lvl=2
RfG256 VSS!:8 VSS!:9 35.340801 $li  $L=0.69025 $W=0.250000 $SI_W=0.25 $TYPE=10 $DIR=0 $LLX=0.000000 $LLY=-0.124500 $URX=0.690000 $URY=0.125000 $lvl=2
RfG257 VSS!:7 VSS!:11 55.328377 $li  $L=0.77475 $W=0.170000 $SI_W=0.17 $TYPE=10 $DIR=1 $LLX=1.465000 $LLY=0.000000 $URX=1.635000 $URY=0.775000 $lvl=2
RfG258 VSS!:11 VSS!:12 28.611765 $li  $L=0.38 $W=0.170000 $SI_W=0.17 $TYPE=10 $DIR=1 $LLX=1.465000 $LLY=0.775000 $URX=1.635000 $URY=1.155000 $lvl=2
RfG259 VSS!:8 VSS!:14 55.328377 $li  $L=0.77475 $W=0.170000 $SI_W=0.17 $TYPE=10 $DIR=1 $LLX=0.605000 $LLY=0.000000 $URX=0.775000 $URY=0.775000 $lvl=2
RfG260 VSS!:14 VSS!:15 28.611765 $li  $L=0.38 $W=0.170000 $SI_W=0.17 $TYPE=10 $DIR=1 $LLX=0.605000 $LLY=0.775000 $URX=0.775000 $URY=1.155000 $lvl=2
RhG261 Mmn0:s VSS!:11 7.500000 $licon_diff  $A=0.0578 $VC=0 $SAVL=0 $SAVC=0 $SI_A=0.0578 $COVER_DIR=0 $LLX=0.000000 $LLY=0.000000 $URX=-0.057800 $URY=-2.000000 $lvl=5
RhG262 Mmn0@1:s VSS!:14 7.500000 $licon_diff  $A=0.0578 $VC=0 $SAVL=0 $SAVC=0 $SI_A=0.0578 $COVER_DIR=0 $LLX=0.000000 $LLY=0.000000 $URX=-0.057800 $URY=-2.000000 $lvl=5
Rh_3_G263 VSS!:3 VSS!:2 7.500000 $licon_diff  $A=0.0578 $VC=0 $SAVL=0 $SAVC=0 $SI_A=0.0578 $COVER_DIR=0 $LLX=0.000000 $LLY=0.000000 $URX=-0.057800 $URY=-2.000000 $lvl=5
Rh_3_G264 VSS!:3 VSS!:5 1.000000 $licon_diff  $A=0.4335 $VC=0 $SAVL=0 $SAVC=0 $SI_A=0.4335 $COVER_DIR=0 $LLX=0.000000 $LLY=0.000000 $URX=-0.433500 $URY=-15.000000 $lvl=5
RjG265 VSS!:2 VSS!:17 76.000000 $mcon  $A=0.0578 $VC=0 $SAVL=0 $SAVC=0 $SI_A=0.0578 $COVER_DIR=0 $LLX=0.000000 $LLY=0.000000 $URX=-0.057800 $URY=-2.000000 $lvl=6
RjG266 VSS!:5 VSS!:18 10.133333 $mcon  $A=0.4335 $VC=0 $SAVL=0 $SAVC=0 $SI_A=0.4335 $COVER_DIR=0 $LLX=0.000000 $LLY=0.000000 $URX=-0.433500 $URY=-15.000000 $lvl=6
RmwG267 Mmn2@1:b VSS! 0.001000 $FOX $W=1000000 $SI_W=1000000 $TYPE=1 $DIR=0
RmwG268 Mmn2@2:b VSS! 0.001000 $FOX $W=1000000 $SI_W=1000000 $TYPE=1 $DIR=0
RmwG269 Mmn2:b VSS! 0.001000 $FOX $W=1000000 $SI_W=1000000 $TYPE=1 $DIR=0
RmwG270 Mmn2@3:b VSS! 0.001000 $FOX $W=1000000 $SI_W=1000000 $TYPE=1 $DIR=0
RmwG271 Mmn0@1:b VSS! 0.001000 $FOX $W=1000000 $SI_W=1000000 $TYPE=1 $DIR=0
RmwG272 Mmn0@3:s Mmn0@1:s 0.001000 $diff $W=1000000 $SI_W=1000000 $TYPE=1 $DIR=0
RmwG273 Mmn0@3:b VSS! 0.001000 $FOX $W=1000000 $SI_W=1000000 $TYPE=1 $DIR=0
RmwG274 Mmn0:b VSS! 0.001000 $FOX $W=1000000 $SI_W=1000000 $TYPE=1 $DIR=0
RmwG275 Mmn0@2:s Mmn0:s 0.001000 $diff $W=1000000 $SI_W=1000000 $TYPE=1 $DIR=0
RmwG276 Mmn0@2:b VSS! 0.001000 $FOX $W=1000000 $SI_W=1000000 $TYPE=1 $DIR=0
RmwG277 Mmn3@2:b VSS! 0.001000 $FOX $W=1000000 $SI_W=1000000 $TYPE=1 $DIR=0
RmwG278 Mmn3:b VSS! 0.001000 $FOX $W=1000000 $SI_W=1000000 $TYPE=1 $DIR=0
RmwG279 Mmn3@3:b VSS! 0.001000 $FOX $W=1000000 $SI_W=1000000 $TYPE=1 $DIR=0
RmwG280 Mmn3@1:b VSS! 0.001000 $FOX $W=1000000 $SI_W=1000000 $TYPE=1 $DIR=0
RmwG281 Mmn1@3:b VSS! 0.001000 $FOX $W=1000000 $SI_W=1000000 $TYPE=1 $DIR=0
RmwG282 Mmn1:b VSS! 0.001000 $FOX $W=1000000 $SI_W=1000000 $TYPE=1 $DIR=0
RmwG283 Mmn1@2:b VSS! 0.001000 $FOX $W=1000000 $SI_W=1000000 $TYPE=1 $DIR=0
RmwG284 Mmn1@1:b VSS! 0.001000 $FOX $W=1000000 $SI_W=1000000 $TYPE=1 $DIR=0
*
*|NET n0 2.8427e-15
*|I (Mmn2@1:d Mmn2@1 d X 0 4.3595 0.7750) // $llx=4.3595 $lly=0.7750 $urx=4.3595 $ury=0.7750 $lvl=4
*|I (Mmn2@2:d Mmn2@2 d X 0 4.9405 0.7750) // $llx=4.9405 $lly=0.7750 $urx=4.9405 $ury=0.7750 $lvl=4
*|I (Mmn2:d Mmn2 d X 0 5.2195 0.7750) // $llx=5.2195 $lly=0.7750 $urx=5.2195 $ury=0.7750 $lvl=4
*|I (Mmn2@3:d Mmn2@3 d X 0 5.8005 0.7750) // $llx=5.8005 $lly=0.7750 $urx=5.8005 $ury=0.7750 $lvl=4
*|I (Mmn3@2:s Mmn3@2 s X 0 6.0795 0.7750) // $llx=6.0795 $lly=0.7750 $urx=6.0795 $ury=0.7750 $lvl=4
*|I (Mmn3:s Mmn3 s X 0 6.6605 0.7750) // $llx=6.6605 $lly=0.7750 $urx=6.6605 $ury=0.7750 $lvl=4
*|I (Mmn3@3:s Mmn3@3 s X 0 6.9395 0.7750) // $llx=6.9395 $lly=0.7750 $urx=6.9395 $ury=0.7750 $lvl=4
*|I (Mmn3@1:s Mmn3@1 s X 0 7.5205 0.7750) // $llx=7.5205 $lly=0.7750 $urx=7.5205 $ury=0.7750 $lvl=4
*|S (n0 4.2200 1.1550) // $llx=4.2200 $lly=1.1550 $urx=4.2200 $ury=1.1550 $lvl=2
*|S (n0:3 4.2200 0.7750) // $llx=4.2200 $lly=0.7750 $urx=4.2200 $ury=0.7750 $lvl=2
*|S (n0:4 4.2200 0.5600) // $llx=4.2200 $lly=0.5600 $urx=4.2200 $ury=0.5600 $lvl=2
*|S (n0:5 5.0800 1.1550) // $llx=5.0800 $lly=1.1550 $urx=5.0800 $ury=1.1550 $lvl=2
*|S (n0:7 5.0800 0.7750) // $llx=5.0800 $lly=0.7750 $urx=5.0800 $ury=0.7750 $lvl=2
*|S (n0:8 5.0800 0.5600) // $llx=5.0800 $lly=0.5600 $urx=5.0800 $ury=0.5600 $lvl=2
*|S (n0:9 5.9400 1.1550) // $llx=5.9400 $lly=1.1550 $urx=5.9400 $ury=1.1550 $lvl=2
*|S (n0:11 5.9400 0.7750) // $llx=5.9400 $lly=0.7750 $urx=5.9400 $ury=0.7750 $lvl=2
*|S (n0:12 5.9400 0.5600) // $llx=5.9400 $lly=0.5600 $urx=5.9400 $ury=0.5600 $lvl=2
*|S (n0:13 6.8000 1.1550) // $llx=6.8000 $lly=1.1550 $urx=6.8000 $ury=1.1550 $lvl=2
*|S (n0:15 6.8000 0.7750) // $llx=6.8000 $lly=0.7750 $urx=6.8000 $ury=0.7750 $lvl=2
*|S (n0:16 6.8000 0.5600) // $llx=6.8000 $lly=0.5600 $urx=6.8000 $ury=0.5600 $lvl=2
*|S (n0:17 7.6600 1.1550) // $llx=7.6600 $lly=1.1550 $urx=7.6600 $ury=1.1550 $lvl=2
*|S (n0:19 7.6600 0.7750) // $llx=7.6600 $lly=0.7750 $urx=7.6600 $ury=0.7750 $lvl=2
*|S (n0:20 7.6600 0.5600) // $llx=7.6600 $lly=0.5600 $urx=7.6600 $ury=0.5600 $lvl=2
*|S (n0:21 7.8050 0.5600) // $llx=7.8050 $lly=0.5600 $urx=7.8050 $ury=0.5600 $lvl=1
*|S (n0:22 7.6600 0.5600) // $llx=7.6600 $lly=0.5600 $urx=7.6600 $ury=0.5600 $lvl=1
*|S (n0:23 6.8000 0.5600) // $llx=6.8000 $lly=0.5600 $urx=6.8000 $ury=0.5600 $lvl=1
*|S (n0:24 5.9400 0.5600) // $llx=5.9400 $lly=0.5600 $urx=5.9400 $ury=0.5600 $lvl=1
*|S (n0:25 5.0800 0.5600) // $llx=5.0800 $lly=0.5600 $urx=5.0800 $ury=0.5600 $lvl=1
*|S (n0:26 4.2200 0.5600) // $llx=4.2200 $lly=0.5600 $urx=4.2200 $ury=0.5600 $lvl=1
*|S (n0:27 4.0750 0.5600) // $llx=4.0750 $lly=0.5600 $urx=4.0750 $ury=0.5600 $lvl=1
CJ1 Mmn3@1:s VSS! 3.93641e-18 $lvl=4
CJ2 Mmn3:s VSS! 6.731e-19 $lvl=4
CJ3 Mmn2@3:d VSS! 2.24861e-18 $lvl=4
CJ4 Mmn2@2:d VSS! 2.25729e-18 $lvl=4
CJ5 Mmn2@1:d VSS! 6.46245e-18 $lvl=4
CJ6 n0:25 VSS! 6.87923e-18 $lvl=1
CJ7 n0:24 VSS! 9.24786e-18 $lvl=1
CJ8 n0:23 VSS! 7.14579e-18 $lvl=1
CJ9 n0:21 VSS! 6.98675e-18 $lvl=1
CJ10 n0:27 VSS! 8.36017e-18 $lvl=1
CJ11 n0:17 VSS! 2.16266e-17 $lvl=2
CJ12 n0:13 VSS! 7.13604e-18 $lvl=2
CJ13 n0:9 VSS! 1.28045e-17 $lvl=2
CJ14 n0:5 VSS! 4.8234e-18 $lvl=2
CJ15 n0:4 VSS! 3.37908e-18 $lvl=2
CJ16 n0:8 VSS! 2.61685e-18 $lvl=2
CJ17 n0:12 VSS! 1.3989e-18 $lvl=2
CJ18 n0:16 VSS! 1.67612e-18 $lvl=2
CJ19 n0:20 VSS! 1.50422e-18 $lvl=2
CJ20 n0 VSS! 2.0162e-17 $lvl=2
CJ21 n0:17 VSS!:1 6.08125e-18 $lvl1=2 $lvl2=2
CJ22 Mmn2@3:d VSS!:7 3.89474e-18 $lvl1=4 $lvl2=2
CJ23 Mmn2@1:d VSS!:7 3.61416e-18 $lvl1=4 $lvl2=2
CJ24 n0:17 VSS!:2 3.49081e-18 $lvl1=2 $lvl2=2
CJ25 n0:4 VSS!:7 3.26022e-18 $lvl1=2 $lvl2=2
CJ26 n0:17 VSS!:3 3.23252e-18 $lvl1=2 $lvl2=4
CJ27 n0 VSS!:3 3.16076e-18 $lvl1=2 $lvl2=4
CJ28 n0:21 VSS!:18 3.15408e-18 $lvl1=1 $lvl2=1
CJ29 n0:12 VSS!:18 3.07279e-18 $lvl1=2 $lvl2=1
CJ30 n0:17 VSS!:16 3.06162e-18 $lvl1=2 $lvl2=1
CJ31 n0:13 VSS!:5 2.93712e-18 $lvl1=2 $lvl2=2
CJ32 n0:25 VSS!:5 2.93711e-18 $lvl1=1 $lvl2=2
CJ33 n0:24 VSS!:5 2.91975e-18 $lvl1=1 $lvl2=2
CJ34 n0:24 VSS!:7 2.82e-18 $lvl1=1 $lvl2=2
CJ35 n0:20 VSS!:17 2.76982e-18 $lvl1=2 $lvl2=1
CJ36 n0:25 VSS!:7 2.72335e-18 $lvl1=1 $lvl2=2
CJ37 n0:8 VSS!:18 2.68423e-18 $lvl1=2 $lvl2=1
CJ38 n0:20 VSS!:7 2.66324e-18 $lvl1=2 $lvl2=2
CJ39 n0:16 VSS!:18 2.60877e-18 $lvl1=2 $lvl2=1
CJ40 n0:8 VSS!:7 2.58697e-18 $lvl1=2 $lvl2=2
CJ41 n0:27 VSS!:5 2.56026e-18 $lvl1=1 $lvl2=2
CJ42 n0:16 VSS!:7 2.5348e-18 $lvl1=2 $lvl2=2
CJ43 n0:21 VSS!:7 2.49379e-18 $lvl1=1 $lvl2=2
CJ44 n0:23 VSS!:7 2.47955e-18 $lvl1=1 $lvl2=2
CJ45 n0:12 VSS!:5 2.4345e-18 $lvl1=2 $lvl2=2
CJ46 n0:4 VSS!:18 2.43158e-18 $lvl1=2 $lvl2=1
CJ47 n0 VSS!:5 2.42191e-18 $lvl1=2 $lvl2=2
CJ48 n0:12 VSS!:7 2.24144e-18 $lvl1=2 $lvl2=2
CJ49 Mmn3:s VSS!:7 2.19997e-18 $lvl1=4 $lvl2=2
CJ50 n0:9 VSS!:5 2.19058e-18 $lvl1=2 $lvl2=2
CJ51 n0:21 VSS!:2 2.16499e-18 $lvl1=1 $lvl2=2
CJ52 n0:4 VSS!:5 2.14316e-18 $lvl1=2 $lvl2=2
CJ53 n0:23 VSS!:5 2.04603e-18 $lvl1=1 $lvl2=2
CJ54 n0:20 VSS!:2 2.04393e-18 $lvl1=2 $lvl2=2
CJ55 n0 VSS!:18 2.04259e-18 $lvl1=2 $lvl2=1
CJ56 Mmn3@1:s VSS!:7 1.93781e-18 $lvl1=4 $lvl2=2
CJ57 n0:8 VSS!:5 1.9061e-18 $lvl1=2 $lvl2=2
CJ58 n0:16 VSS!:5 1.8912e-18 $lvl1=2 $lvl2=2
CJ59 n0:5 VSS!:5 1.89002e-18 $lvl1=2 $lvl2=2
CJ60 n0:9 VSS!:18 1.80274e-18 $lvl1=2 $lvl2=1
CJ61 n0:17 VSS!:17 1.70765e-18 $lvl1=2 $lvl2=1
CJ62 n0:27 VSS!:7 1.68209e-18 $lvl1=1 $lvl2=2
CJ63 n0:20 VSS!:16 1.60922e-18 $lvl1=2 $lvl2=1
CJ64 n0:21 VSS!:1 1.55896e-18 $lvl1=1 $lvl2=2
CJ65 n0:20 VSS!:1 1.49386e-18 $lvl1=2 $lvl2=2
CJ66 n0:21 VSS!:16 1.14109e-17 $lvl1=1 $lvl2=1
CJ67 n0:23 VSS!:18 5.74473e-17 $lvl1=1 $lvl2=1
CJ68 n0:25 VSS!:18 7.11278e-17 $lvl1=1 $lvl2=1
CJ69 n0 VSS!:7 2.69163e-17 $lvl1=2 $lvl2=2
CJ70 n0:17 VSS!:7 2.67751e-17 $lvl1=2 $lvl2=2
CJ71 n0:21 VSS!:17 4.3322e-17 $lvl1=1 $lvl2=1
CJ72 n0:23 VSS!:17 1.26988e-17 $lvl1=1 $lvl2=1
CJ73 n0:27 VSS!:18 4.97651e-17 $lvl1=1 $lvl2=1
CJ74 n0:13 VSS!:7 1.97548e-17 $lvl1=2 $lvl2=2
CJ75 n0:24 VSS!:18 6.76041e-17 $lvl1=1 $lvl2=1
CJ76 n0:9 VSS!:7 1.99467e-17 $lvl1=2 $lvl2=2
CJ77 n0:5 VSS!:7 1.85466e-17 $lvl1=2 $lvl2=2
ReJ348 n0:21 n0:22 0.078804 $metal1  $L=0.145 $W=0.230000 $SI_W=0.23 $TYPE=10 $DIR=0 $LLX=7.660000 $LLY=0.445000 $URX=7.805000 $URY=0.675000 $lvl=1
ReJ349 n0:22 n0:23 0.467391 $metal1  $L=0.86 $W=0.230000 $SI_W=0.23 $TYPE=10 $DIR=0 $LLX=6.800000 $LLY=0.445000 $URX=7.660000 $URY=0.675000 $lvl=1
ReJ350 n0:23 n0:24 0.467391 $metal1  $L=0.86 $W=0.230000 $SI_W=0.23 $TYPE=10 $DIR=0 $LLX=5.940000 $LLY=0.445000 $URX=6.800000 $URY=0.675000 $lvl=1
ReJ351 n0:24 n0:25 0.467391 $metal1  $L=0.86 $W=0.230000 $SI_W=0.23 $TYPE=10 $DIR=0 $LLX=5.080000 $LLY=0.445000 $URX=5.940000 $URY=0.675000 $lvl=1
ReJ352 n0:25 n0:26 0.467391 $metal1  $L=0.86 $W=0.230000 $SI_W=0.23 $TYPE=10 $DIR=0 $LLX=4.220000 $LLY=0.445000 $URX=5.080000 $URY=0.675000 $lvl=1
ReJ353 n0:26 n0:27 0.078804 $metal1  $L=0.145 $W=0.230000 $SI_W=0.23 $TYPE=10 $DIR=0 $LLX=4.075000 $LLY=0.445000 $URX=4.220000 $URY=0.675000 $lvl=1
RfJ354 n0 n0:3 28.611765 $li  $L=0.38 $W=0.170000 $SI_W=0.17 $TYPE=10 $DIR=1 $LLX=4.135000 $LLY=0.775000 $URX=4.305000 $URY=1.155000 $lvl=2
RfJ355 n0:3 n0:4 16.188236 $li  $L=0.215 $W=0.170000 $SI_W=0.17 $TYPE=10 $DIR=1 $LLX=4.135000 $LLY=0.560000 $URX=4.305000 $URY=0.775000 $lvl=2
RfJ356 n0:5 n0:7 28.611765 $li  $L=0.38 $W=0.170000 $SI_W=0.17 $TYPE=10 $DIR=1 $LLX=4.995000 $LLY=0.775000 $URX=5.165000 $URY=1.155000 $lvl=2
RfJ357 n0:7 n0:8 16.188236 $li  $L=0.215 $W=0.170000 $SI_W=0.17 $TYPE=10 $DIR=1 $LLX=4.995000 $LLY=0.560000 $URX=5.165000 $URY=0.775000 $lvl=2
RfJ358 n0:9 n0:11 28.611765 $li  $L=0.38 $W=0.170000 $SI_W=0.17 $TYPE=10 $DIR=1 $LLX=5.855000 $LLY=0.775000 $URX=6.025000 $URY=1.155000 $lvl=2
RfJ359 n0:11 n0:12 16.188236 $li  $L=0.215 $W=0.170000 $SI_W=0.17 $TYPE=10 $DIR=1 $LLX=5.855000 $LLY=0.560000 $URX=6.025000 $URY=0.775000 $lvl=2
RfJ360 n0:13 n0:15 28.611765 $li  $L=0.38 $W=0.170000 $SI_W=0.17 $TYPE=10 $DIR=1 $LLX=6.715000 $LLY=0.775000 $URX=6.885000 $URY=1.155000 $lvl=2
RfJ361 n0:15 n0:16 16.188236 $li  $L=0.215 $W=0.170000 $SI_W=0.17 $TYPE=10 $DIR=1 $LLX=6.715000 $LLY=0.560000 $URX=6.885000 $URY=0.775000 $lvl=2
RfJ362 n0:17 n0:19 28.611765 $li  $L=0.38 $W=0.170000 $SI_W=0.17 $TYPE=10 $DIR=1 $LLX=7.575000 $LLY=0.775000 $URX=7.745000 $URY=1.155000 $lvl=2
RfJ363 n0:19 n0:20 16.188236 $li  $L=0.215 $W=0.170000 $SI_W=0.17 $TYPE=10 $DIR=1 $LLX=7.575000 $LLY=0.560000 $URX=7.745000 $URY=0.775000 $lvl=2
RhJ364 Mmn2@1:d n0:3 7.500000 $licon_diff  $A=0.0578 $VC=0 $SAVL=0 $SAVC=0 $SI_A=0.0578 $COVER_DIR=0 $LLX=0.000000 $LLY=0.000000 $URX=-0.057800 $URY=-2.000000 $lvl=5
RhJ365 Mmn2@2:d n0:7 7.500000 $licon_diff  $A=0.0578 $VC=0 $SAVL=0 $SAVC=0 $SI_A=0.0578 $COVER_DIR=0 $LLX=0.000000 $LLY=0.000000 $URX=-0.057800 $URY=-2.000000 $lvl=5
RhJ366 Mmn2@3:d n0:11 7.500000 $licon_diff  $A=0.0578 $VC=0 $SAVL=0 $SAVC=0 $SI_A=0.0578 $COVER_DIR=0 $LLX=0.000000 $LLY=0.000000 $URX=-0.057800 $URY=-2.000000 $lvl=5
RhJ367 Mmn3:s n0:15 7.500000 $licon_diff  $A=0.0578 $VC=0 $SAVL=0 $SAVC=0 $SI_A=0.0578 $COVER_DIR=0 $LLX=0.000000 $LLY=0.000000 $URX=-0.057800 $URY=-2.000000 $lvl=5
RhJ368 Mmn3@1:s n0:19 7.500000 $licon_diff  $A=0.0578 $VC=0 $SAVL=0 $SAVC=0 $SI_A=0.0578 $COVER_DIR=0 $LLX=0.000000 $LLY=0.000000 $URX=-0.057800 $URY=-2.000000 $lvl=5