*
*|DSPF 1.5
*
*|DATE "Wed Jan  8 20:54:06 2025"
*|VENDOR "Cadence Design Systems"
*|PROGRAM "Cadence Quantus Extraction"
*|VERSION "22.1.0-p089 Linux 64 bit - (Thu Jan 19 11:47:08 PST 2023)"
*|DESIGN NAND3X4_HS
*|DIVIDER /
*|DELIMITER :
*|DeviceFingerDelim "@"
*|BUSBIT []
*|GLOBAL_TEMPERATURE 25
*|OPERATING_TEMPERATURE 25

** *VIA_COVERAGE_CODES
** *index FF FS FP FU SF SS SP SU PF PS PP PU UF US UP UU X_by_Y
** * "FF" stands for Full landing and Full coverage
** *0 0 0 0 0 0 0 0 0 0 0 0 0 0 0 0 0
** *1 0 0 0 0 0 0 0 0 0 0 0 0 0 0 0 1 1x1
** *2 0 0 0 0 0 0 0 0 0 0 0 0 0 0 1 0 1x1
** *3 0 0 0 0 0 0 0 0 0 0 0 0 0 1 0 0 1x1
** *4 0 0 0 0 0 0 0 0 0 0 0 0 1 0 0 0 1x1
** *5 0 0 0 0 0 0 0 0 0 0 0 1 0 0 0 0 1x1
** *6 0 0 0 0 0 0 0 0 0 0 1 0 0 0 0 0 1x1
** *7 0 0 0 0 0 0 0 0 0 1 0 0 0 0 0 0 1x1
** *8 0 0 0 0 0 0 0 0 1 0 0 0 0 0 0 0 1x1
** *9 0 0 0 0 0 0 0 1 0 0 0 0 0 0 0 0 1x1
** *10 0 0 0 0 0 0 1 0 0 0 0 0 0 0 0 0 1x1
** *11 0 0 0 0 0 1 0 0 0 0 0 0 0 0 0 0 1x1
** *12 0 0 0 0 1 0 0 0 0 0 0 0 0 0 0 0 1x1
** *13 0 0 0 1 0 0 0 0 0 0 0 0 0 0 0 0 1x1
** *14 0 0 1 0 0 0 0 0 0 0 0 0 0 0 0 0 1x1
** *15 0 1 0 0 0 0 0 0 0 0 0 0 0 0 0 0 1x1
** *16 1 0 0 0 0 0 0 0 0 0 0 0 0 0 0 0 1x1

** *RESISTOR_TYPES
** *1 SHORTING_ELEMENT
** *2 PRES_NG
** *3 PRES_PG
** *4 PRES_NF
** *5 PRES_PF
** *6 TCN_NDIFF
** *7 TCN_PDIFF
** *8 TCN_NFIELD
** *9 TCN_PFIELD
** *10 QUALITY_EXTRACTED
** *11 GCNLAND
** *12 TCNLAND
** *13 DUMMY
** *14 RSD
** *15 BRIDGE

** *RESISTOR_CURRENT_DIRECTION
** *0 HORIZONTAL
** *1 VERTICAL
** *2 45 DEGREE

** QRC_TECH_DIR /vols/wfo_devel/projects/reference_SKY130/tech/sky130_release_0.0.4/quantus/extraction/typical 
** HIERARCHICAL_SPLIT_PINS_DELIMITER '%'
** caps2d version: 10
*
.SUBCKT  NAND3X4_HS A B C Y
*
*Net Section
*
*|GROUND_NET VSS!
*
*LAYER_MAP
*0 none
*1 metal1
*2 li
*3 poly
*4 diff
*5 licon_diff
*6 mcon
*7 licon
*8 FOX

*|NET B 3.65416e-15
*|P (B X 0 2.7750 2.0350) // $llx=2.7750 $lly=2.0350 $urx=2.7750 $ury=2.0350 $lvl=1
*|I (Mmp1:g Mmp1 g X 0 2.1950 3.0150) // $llx=2.1950 $lly=3.0150 $urx=2.1950 $ury=3.0150 $lvl=3
*|I (Mmp1@3:g Mmp1@3 g X 0 2.6250 3.0150) // $llx=2.6250 $lly=3.0150 $urx=2.6250 $ury=3.0150 $lvl=3
*|I (Mmp1@1:g Mmp1@1 g X 0 3.0550 3.0150) // $llx=3.0550 $lly=3.0150 $urx=3.0550 $ury=3.0150 $lvl=3
*|I (Mmp1@2:g Mmp1@2 g X 0 3.4850 3.0150) // $llx=3.4850 $lly=3.0150 $urx=3.4850 $ury=3.0150 $lvl=3
*|I (Mmn1:g Mmn1 g X 0 2.1950 0.9700) // $llx=2.1950 $lly=0.9700 $urx=2.1950 $ury=0.9700 $lvl=3
*|I (Mmn1@2:g Mmn1@2 g X 0 2.6250 0.9700) // $llx=2.6250 $lly=0.9700 $urx=2.6250 $ury=0.9700 $lvl=3
*|I (Mmn1@1:g Mmn1@1 g X 0 3.0550 0.9700) // $llx=3.0550 $lly=0.9700 $urx=3.0550 $ury=0.9700 $lvl=3
*|I (Mmn1@3:g Mmn1@3 g X 0 3.4850 0.9700) // $llx=3.4850 $lly=0.9700 $urx=3.4850 $ury=0.9700 $lvl=3
*|S (B:29 3.4850 3.8950) // $llx=3.4850 $lly=3.8950 $urx=3.4850 $ury=3.8950 $lvl=3
*|S (B:30 3.4850 1.6250) // $llx=3.4850 $lly=1.6250 $urx=3.4850 $ury=1.6250 $lvl=3
*|S (B:31 3.0550 1.6250) // $llx=3.0550 $lly=1.6250 $urx=3.0550 $ury=1.6250 $lvl=3
*|S (B:32 2.8400 1.6250) // $llx=2.8400 $lly=1.6250 $urx=2.8400 $ury=1.6250 $lvl=3
*|S (B:33 2.6250 1.6250) // $llx=2.6250 $lly=1.6250 $urx=2.6250 $ury=1.6250 $lvl=3
*|S (B:34 2.1950 1.6250) // $llx=2.1950 $lly=1.6250 $urx=2.1950 $ury=1.6250 $lvl=3
*|S (B:35 3.4850 0.4400) // $llx=3.4850 $lly=0.4400 $urx=3.4850 $ury=0.4400 $lvl=3
*|S (B:36 3.0550 0.4400) // $llx=3.0550 $lly=0.4400 $urx=3.0550 $ury=0.4400 $lvl=3
*|S (B:37 3.0550 3.8950) // $llx=3.0550 $lly=3.8950 $urx=3.0550 $ury=3.8950 $lvl=3
*|S (B:38 2.6250 0.4400) // $llx=2.6250 $lly=0.4400 $urx=2.6250 $ury=0.4400 $lvl=3
*|S (B:39 2.6250 3.8950) // $llx=2.6250 $lly=3.8950 $urx=2.6250 $ury=3.8950 $lvl=3
*|S (B:40 2.1950 3.8950) // $llx=2.1950 $lly=3.8950 $urx=2.1950 $ury=3.8950 $lvl=3
*|S (B:41 2.1950 0.4400) // $llx=2.1950 $lly=0.4400 $urx=2.1950 $ury=0.4400 $lvl=3
*|S (B:42 2.8400 1.6250) // $llx=2.8400 $lly=1.6250 $urx=2.8400 $ury=1.6250 $lvl=2
*|S (B:43 2.7600 1.6250) // $llx=2.7600 $lly=1.6250 $urx=2.7600 $ury=1.6250 $lvl=2
*|S (B:44 2.7600 2.6800) // $llx=2.7600 $lly=2.6800 $urx=2.7600 $ury=2.6800 $lvl=1
*|S (B:45 2.7600 1.6250) // $llx=2.7600 $lly=1.6250 $urx=2.7600 $ury=1.6250 $lvl=1
*|S (B:46 2.7600 1.4400) // $llx=2.7600 $lly=1.4400 $urx=2.7600 $ury=1.4400 $lvl=1
CB1 Mmn1@3:g VSS! 2.93635e-18 $lvl=3
CB2 Mmn1@2:g VSS! 2.28679e-18 $lvl=3
CB3 Mmn1:g VSS! 4.2595e-18 $lvl=3
CB4 Mmp1@2:g VSS! 4.09632e-18 $lvl=3
CB5 B:45 VSS! 1.88625e-17 $lvl=1
CB6 B:44 VSS! 1.58756e-17 $lvl=1
CB7 B:37 VSS! 2.75692e-18 $lvl=3
CB8 B:39 VSS! 3.01927e-18 $lvl=3
CB9 B:40 VSS! 4.4447e-18 $lvl=3
CB10 B:36 VSS! 2.56699e-18 $lvl=3
CB11 B:42 VSS! 1.2729e-17 $lvl=2
CB12 B:43 VSS! 5.60368e-18 $lvl=2
CB13 B:32 VSS! 3.88378e-17 $lvl=3
CB14 B:43 n0 2.25114e-18 $lvl1=2 $lvl2=2
CB15 B:32 Mmn1:d 2.22131e-18 $lvl1=3 $lvl2=4
CB16 B:32 Mmn1@1:d 1.99379e-18 $lvl1=3 $lvl2=4
CB17 B:42 n0 1.63382e-17 $lvl1=2 $lvl2=2
CB18 B:32 n0 1.38748e-17 $lvl1=3 $lvl2=2
CB19 Mmn1@3:g n0:5 1.26789e-16 $lvl1=3 $lvl2=2
CB20 B:36 n0:5 1.30181e-16 $lvl1=3 $lvl2=2
CB21 B:42 n0:5 1.62658e-17 $lvl1=2 $lvl2=2
CB22 Mmn1@2:g n0 1.30587e-16 $lvl1=3 $lvl2=2
CB23 Mmn1:g n0 1.27185e-16 $lvl1=3 $lvl2=2
CB24 B:32 n0:5 1.38464e-17 $lvl1=3 $lvl2=2
CB25 B:43 n1:17 9.89074e-18 $lvl1=2 $lvl2=2
CB26 B:45 n1:29 8.7734e-18 $lvl1=1 $lvl2=1
CB27 B:42 n1:22 7.04009e-18 $lvl1=2 $lvl2=2
CB28 B:42 n1:28 5.1489e-18 $lvl1=2 $lvl2=1
CB29 B:42 n1:26 5.04465e-18 $lvl1=2 $lvl2=1
CB30 B:42 n1:11 4.97872e-18 $lvl1=2 $lvl2=2
CB31 B:32 n1:22 4.96696e-18 $lvl1=3 $lvl2=2
CB32 B:42 n1:29 4.59895e-18 $lvl1=2 $lvl2=1
CB33 B:45 n1:26 4.46504e-18 $lvl1=1 $lvl2=1
CB34 B:44 n1:29 4.3037e-18 $lvl1=1 $lvl2=1
CB35 B:32 n1:11 4.19064e-18 $lvl1=3 $lvl2=2
CB36 B:44 n1:28 3.6649e-18 $lvl1=1 $lvl2=1
CB37 B:45 n1:17 3.50268e-18 $lvl1=1 $lvl2=2
CB38 B:43 n1:28 3.2655e-18 $lvl1=2 $lvl2=1
CB39 B:44 n1:26 2.83169e-18 $lvl1=1 $lvl2=1
CB40 B:32 Mmn1@2:s 2.37731e-18 $lvl1=3 $lvl2=4
CB41 B:42 n1:12 1.44017e-18 $lvl1=2 $lvl2=2
CB42 B:44 n1:34 1.20961e-18 $lvl1=1 $lvl2=1
CB43 Mmn1@3:g n1:25 1.07922e-18 $lvl1=3 $lvl2=2
CB44 B:43 n1:29 1.06685e-18 $lvl1=2 $lvl2=1
CB45 Mmn1:g n1:15 8.75868e-19 $lvl1=3 $lvl2=2
CB46 B:36 n1:20 8.11675e-19 $lvl1=3 $lvl2=2
CB47 B:32 n1:29 8.07404e-19 $lvl1=3 $lvl2=1
CB48 Mmn1@2:g n1:20 8.00752e-19 $lvl1=3 $lvl2=2
CB49 B:32 n1:17 1.49728e-17 $lvl1=3 $lvl2=2
CB50 Mmn1@3:g n1:22 1.29886e-16 $lvl1=3 $lvl2=2
CB51 Mmn1@2:g n1:17 1.24173e-16 $lvl1=3 $lvl2=2
CB52 B:36 n1:17 1.26809e-16 $lvl1=3 $lvl2=2
CB53 B:45 n1:28 5.84795e-17 $lvl1=1 $lvl2=1
CB54 B:42 n1:17 1.56863e-17 $lvl1=2 $lvl2=2
CB55 Mmn1:g n1:11 1.28489e-16 $lvl1=3 $lvl2=2
CB56 Mmn1@3:g VSS!:4 5.21929e-18 $lvl1=3 $lvl2=2
CB57 Mmn1@2:g VSS!:4 5.08684e-18 $lvl1=3 $lvl2=2
CB58 B:36 VSS!:4 4.68695e-18 $lvl1=3 $lvl2=2
CB59 Mmn1:g VSS!:4 4.16412e-18 $lvl1=3 $lvl2=2
CB60 B:37 VDD!:18 9.71304e-18 $lvl1=3 $lvl2=2
CB61 B:40 VDD!:10 8.65391e-18 $lvl1=3 $lvl2=2
CB62 B:44 VDD! 8.50202e-18 $lvl1=1 $lvl2=1
CB63 Mmp1@2:g VDD!:18 7.96403e-18 $lvl1=3 $lvl2=2
CB64 B:39 VDD!:18 7.07378e-18 $lvl1=3 $lvl2=2
CB65 B:44 VDD!:13 5.8389e-18 $lvl1=1 $lvl2=2
CB66 B:32 VDD!:16 5.24296e-18 $lvl1=3 $lvl2=2
CB67 B:42 VDD!:16 4.57846e-18 $lvl1=2 $lvl2=2
CB68 B:32 VDD! 4.54938e-18 $lvl1=3 $lvl2=1
CB69 B:45 VDD! 4.05867e-18 $lvl1=1 $lvl2=1
CB70 B:44 VDD!:39 3.83096e-18 $lvl1=1 $lvl2=1
CB71 B:44 VDD!:23 3.21746e-18 $lvl1=1 $lvl2=2
CB72 B:42 VDD!:23 2.9396e-18 $lvl1=2 $lvl2=2
CB73 B:39 VDD!:10 2.92915e-18 $lvl1=3 $lvl2=2
CB74 B:32 VDD!:23 2.60895e-18 $lvl1=3 $lvl2=2
CB75 B:32 VDD!:13 2.04525e-18 $lvl1=3 $lvl2=2
CB76 B:42 VDD!:13 1.9958e-18 $lvl1=2 $lvl2=2
CB77 B:42 VDD! 1.29639e-18 $lvl1=2 $lvl2=1
CB78 B:43 VDD!:16 1.22363e-18 $lvl1=2 $lvl2=2
CB79 B:45 VDD!:39 1.17516e-18 $lvl1=1 $lvl2=1
CB80 Mmp1@2:g VDD!:23 2.60499e-16 $lvl1=3 $lvl2=2
CB81 B:37 VDD!:16 2.53574e-16 $lvl1=3 $lvl2=2
CB82 B:39 VDD!:16 2.52073e-16 $lvl1=3 $lvl2=2
CB83 B:40 VDD!:13 2.5227e-16 $lvl1=3 $lvl2=2
CB84 B:44 VDD!:16 2.32629e-17 $lvl1=1 $lvl2=2
CB85 B:44 Y:16 7.83225e-18 $lvl1=1 $lvl2=2
CB86 B:44 Y:50 6.20211e-18 $lvl1=1 $lvl2=1
CB87 B:44 Y:15 6.04594e-18 $lvl1=1 $lvl2=2
CB88 B:44 Y:51 4.87499e-18 $lvl1=1 $lvl2=1
CB89 B:44 Y:20 4.07448e-18 $lvl1=1 $lvl2=2
CB90 B:42 Y:51 3.05168e-18 $lvl1=2 $lvl2=1
CB91 B:42 Y:20 2.81061e-18 $lvl1=2 $lvl2=2
CB92 B:44 Y:48 2.72076e-18 $lvl1=1 $lvl2=1
CB93 B:42 Y:15 2.40607e-18 $lvl1=2 $lvl2=2
CB94 B:32 Y:20 2.33671e-18 $lvl1=3 $lvl2=2
CB95 B:32 Y:15 2.20179e-18 $lvl1=3 $lvl2=2
CB96 B:45 Y:51 2.1391e-18 $lvl1=1 $lvl2=1
CB97 B:32 Y:16 2.10871e-18 $lvl1=3 $lvl2=2
CB98 B:32 Y:11 1.95752e-18 $lvl1=3 $lvl2=2
CB99 B:42 Y:11 1.71709e-18 $lvl1=2 $lvl2=2
CB100 B:42 Y:16 1.70178e-18 $lvl1=2 $lvl2=2
CB101 B:45 Y:50 1.39704e-18 $lvl1=1 $lvl2=1
CB102 B:44 Y:6 1.20026e-18 $lvl1=1 $lvl2=2
CB103 B:32 Y:51 1.16942e-18 $lvl1=3 $lvl2=1
CB104 Mmp1@2:g Y:20 1.04875e-18 $lvl1=3 $lvl2=2
CB105 B:40 Y:15 1.03363e-18 $lvl1=3 $lvl2=2
CB106 B:42 Y:21 9.74591e-19 $lvl1=2 $lvl2=2
CB107 B:37 Y:20 8.92911e-19 $lvl1=3 $lvl2=2
CB108 Mmn1@3:g Y:21 8.56523e-19 $lvl1=3 $lvl2=2
CB109 B:45 Y:47 8.3895e-19 $lvl1=1 $lvl2=1
CB110 B:32 Y:21 8.34381e-19 $lvl1=3 $lvl2=2
CB111 B:45 Y:15 8.30658e-19 $lvl1=1 $lvl2=2
CB112 B:44 Y:10 7.99821e-19 $lvl1=1 $lvl2=2
CB113 B:39 Y:15 7.92746e-19 $lvl1=3 $lvl2=2
CB114 B:32 Mmp1:d 7.75771e-19 $lvl1=3 $lvl2=4
CB115 B:42 Y:50 7.49194e-19 $lvl1=2 $lvl2=1
CB116 B:40 Y:6 7.48517e-19 $lvl1=3 $lvl2=2
CB117 B:32 Mmp1@1:d 7.0368e-19 $lvl1=3 $lvl2=4
CB118 B:44 Y:46 1.09247e-17 $lvl1=1 $lvl2=1
CB119 B:44 Y:47 1.36161e-17 $lvl1=1 $lvl2=1
CB120 Mmp1@2:g Y:16 2.49579e-16 $lvl1=3 $lvl2=2
CB121 B:44 Y:11 1.09412e-17 $lvl1=1 $lvl2=2
CB122 B:40 Y:11 2.53019e-16 $lvl1=3 $lvl2=2
CB123 B:37 Y:16 2.54515e-16 $lvl1=3 $lvl2=2
CB124 B:39 Y:11 2.5349e-16 $lvl1=3 $lvl2=2
ReB27 B:44 B 0.310096 $metal1  $L=0.645 $W=0.260000 $SI_W=0.26 $TYPE=10 $DIR=1 $LLX=2.630000 $LLY=2.035000 $URX=2.890000 $URY=2.680000 $lvl=1
ReB28 B B:45 0.197115 $metal1  $L=0.41 $W=0.260000 $SI_W=0.26 $TYPE=10 $DIR=1 $LLX=2.630000 $LLY=1.625000 $URX=2.890000 $URY=2.035000 $lvl=1
ReB29 B:45 B:46 0.088942 $metal1  $L=0.185 $W=0.260000 $SI_W=0.26 $TYPE=10 $DIR=1 $LLX=2.630000 $LLY=1.440000 $URX=2.890000 $URY=1.625000 $lvl=1
RfB30 B:42 B:43 6.023530 $li  $L=0.08 $W=0.170000 $SI_W=0.17 $TYPE=10 $DIR=0 $LLX=2.760000 $LLY=1.540000 $URX=2.840000 $URY=1.710000 $lvl=2
RgB31 B:29 Mmp1@2:g 282.773346 $poly  $L=0.88 $W=0.150000 $SI_W=0.15 $TYPE=10 $DIR=1 $LLX=3.410000 $LLY=3.015000 $URX=3.560000 $URY=3.895000 $lvl=3
RgB32 Mmp1@2:g B:30 446.572998 $poly  $L=1.38975 $W=0.150000 $SI_W=0.15 $TYPE=10 $DIR=1 $LLX=3.410000 $LLY=1.625000 $URX=3.560000 $URY=3.015000 $lvl=3
RgB33 B:30 B:31 76.762962 $poly  $L=0.43 $W=0.270000 $SI_W=0.27 $TYPE=10 $DIR=0 $LLX=3.055000 $LLY=1.490000 $URX=3.485000 $URY=1.760000 $lvl=3
RgB34 B:31 B:32 38.426109 $poly  $L=0.21525 $W=0.270000 $SI_W=0.27 $TYPE=10 $DIR=0 $LLX=2.840000 $LLY=1.490000 $URX=3.055000 $URY=1.760000 $lvl=3
RgB35 B:32 B:33 38.336849 $poly  $L=0.21475 $W=0.270000 $SI_W=0.27 $TYPE=10 $DIR=0 $LLX=2.625000 $LLY=1.490000 $URX=2.840000 $URY=1.760000 $lvl=3
RgB36 B:33 B:34 76.762962 $poly  $L=0.43 $W=0.270000 $SI_W=0.27 $TYPE=10 $DIR=0 $LLX=2.195000 $LLY=1.490000 $URX=2.625000 $URY=1.760000 $lvl=3
RgB37 B:34 Mmn1:g 210.553665 $poly  $L=0.65525 $W=0.150000 $SI_W=0.15 $TYPE=10 $DIR=1 $LLX=2.120000 $LLY=0.970000 $URX=2.270000 $URY=1.625000 $lvl=3
RgB38 B:30 Mmn1@3:g 210.553665 $poly  $L=0.65525 $W=0.150000 $SI_W=0.15 $TYPE=10 $DIR=1 $LLX=3.410000 $LLY=0.970000 $URX=3.560000 $URY=1.625000 $lvl=3
RgB39 Mmn1@3:g B:35 170.306671 $poly  $L=0.53 $W=0.150000 $SI_W=0.15 $TYPE=10 $DIR=1 $LLX=3.410000 $LLY=0.440000 $URX=3.560000 $URY=0.970000 $lvl=3
RgB40 B:31 Mmn1@1:g 191.237961 $poly  $L=0.65525 $W=0.150000 $SI_W=0.15 $TYPE=10 $DIR=1 $LLX=2.980000 $LLY=0.970000 $URX=3.130000 $URY=1.625000 $lvl=3
RgB41 Mmn1@1:g B:36 170.306671 $poly  $L=0.53 $W=0.150000 $SI_W=0.15 $TYPE=10 $DIR=1 $LLX=2.980000 $LLY=0.440000 $URX=3.130000 $URY=0.970000 $lvl=3
RgB42 B:31 Mmp1@1:g 427.328705 $poly  $L=1.38975 $W=0.150000 $SI_W=0.15 $TYPE=10 $DIR=1 $LLX=2.980000 $LLY=1.625000 $URX=3.130000 $URY=3.015000 $lvl=3
RgB43 Mmp1@1:g B:37 282.773346 $poly  $L=0.88 $W=0.150000 $SI_W=0.15 $TYPE=10 $DIR=1 $LLX=2.980000 $LLY=3.015000 $URX=3.130000 $URY=3.895000 $lvl=3
RgB44 B:33 Mmn1@2:g 191.237961 $poly  $L=0.65525 $W=0.150000 $SI_W=0.15 $TYPE=10 $DIR=1 $LLX=2.550000 $LLY=0.970000 $URX=2.700000 $URY=1.625000 $lvl=3
RgB45 Mmn1@2:g B:38 170.306671 $poly  $L=0.53 $W=0.150000 $SI_W=0.15 $TYPE=10 $DIR=1 $LLX=2.550000 $LLY=0.440000 $URX=2.700000 $URY=0.970000 $lvl=3
RgB46 B:33 Mmp1@3:g 427.328705 $poly  $L=1.38975 $W=0.150000 $SI_W=0.15 $TYPE=10 $DIR=1 $LLX=2.550000 $LLY=1.625000 $URX=2.700000 $URY=3.015000 $lvl=3
RgB47 Mmp1@3:g B:39 282.773346 $poly  $L=0.88 $W=0.150000 $SI_W=0.15 $TYPE=10 $DIR=1 $LLX=2.550000 $LLY=3.015000 $URX=2.700000 $URY=3.895000 $lvl=3
RgB48 B:34 Mmp1:g 446.572998 $poly  $L=1.38975 $W=0.150000 $SI_W=0.15 $TYPE=10 $DIR=1 $LLX=2.120000 $LLY=1.625000 $URX=2.270000 $URY=3.015000 $lvl=3
RgB49 Mmp1:g B:40 282.773346 $poly  $L=0.88 $W=0.150000 $SI_W=0.15 $TYPE=10 $DIR=1 $LLX=2.120000 $LLY=3.015000 $URX=2.270000 $URY=3.895000 $lvl=3
RgB50 Mmn1:g B:41 170.306671 $poly  $L=0.53 $W=0.150000 $SI_W=0.15 $TYPE=10 $DIR=1 $LLX=2.120000 $LLY=0.440000 $URX=2.270000 $URY=0.970000 $lvl=3
RjB51 B:43 B:45 152.000000 $mcon  $L=0.17 $W=0.17 $A=0.0289 $VC=0 $SAVL=0 $SAVC=0 $SI_A=0.0289 $COVER_DIR=0 $LLX=0.000000 $LLY=0.000000 $URX=0.170000 $URY=0.170000 $lvl=6
RiB52 B:32 B:42 5.000000 $licon  $A=0.0867 $VC=0 $SAVL=0 $SAVC=0 $SI_A=0.0867 $COVER_DIR=0 $LLX=0.000000 $LLY=0.000000 $URX=-0.086700 $URY=-3.000000 $lvl=7
*
*|NET VSS! 2.89271e-15
*|P (VSS! X 0 3.1250 0.0050) // $llx=3.1250 $lly=0.0050 $urx=3.1250 $ury=0.0050 $lvl=1
*|I (Mmn0:s Mmn0 s X 0 0.5505 0.9700) // $llx=0.5505 $lly=0.9700 $urx=0.5505 $ury=0.9700 $lvl=4
*|I (Mmn0:b Mmn0 b X 0 0.4750 0.9700) // $llx=0.4750 $lly=0.9700 $urx=0.4750 $ury=0.9700 $lvl=8
*|I (Mmn0@2:s Mmn0@2 s X 0 0.8295 0.9700) // $llx=0.8295 $lly=0.9700 $urx=0.8295 $ury=0.9700 $lvl=4
*|I (Mmn0@2:b Mmn0@2 b X 0 0.9050 0.9700) // $llx=0.9050 $lly=0.9700 $urx=0.9050 $ury=0.9700 $lvl=8
*|I (Mmn0@1:s Mmn0@1 s X 0 1.4105 0.9700) // $llx=1.4105 $lly=0.9700 $urx=1.4105 $ury=0.9700 $lvl=4
*|I (Mmn0@1:b Mmn0@1 b X 0 1.3350 0.9700) // $llx=1.3350 $lly=0.9700 $urx=1.3350 $ury=0.9700 $lvl=8
*|I (Mmn0@3:s Mmn0@3 s X 0 1.6895 0.9700) // $llx=1.6895 $lly=0.9700 $urx=1.6895 $ury=0.9700 $lvl=4
*|I (Mmn0@3:b Mmn0@3 b X 0 1.7650 0.9700) // $llx=1.7650 $lly=0.9700 $urx=1.7650 $ury=0.9700 $lvl=8
*|I (Mmn2:b Mmn2 b X 0 4.4350 0.9700) // $llx=4.4350 $lly=0.9700 $urx=4.4350 $ury=0.9700 $lvl=8
*|I (Mmn2@3:b Mmn2@3 b X 0 4.8650 0.9700) // $llx=4.8650 $lly=0.9700 $urx=4.8650 $ury=0.9700 $lvl=8
*|I (Mmn2@1:b Mmn2@1 b X 0 5.2950 0.9700) // $llx=5.2950 $lly=0.9700 $urx=5.2950 $ury=0.9700 $lvl=8
*|I (Mmn2@2:b Mmn2@2 b X 0 5.7250 0.9700) // $llx=5.7250 $lly=0.9700 $urx=5.7250 $ury=0.9700 $lvl=8
*|I (Mmn1:b Mmn1 b X 0 2.1950 0.9700) // $llx=2.1950 $lly=0.9700 $urx=2.1950 $ury=0.9700 $lvl=8
*|I (Mmn1@2:b Mmn1@2 b X 0 2.6250 0.9700) // $llx=2.6250 $lly=0.9700 $urx=2.6250 $ury=0.9700 $lvl=8
*|I (Mmn1@1:b Mmn1@1 b X 0 3.0550 0.9700) // $llx=3.0550 $lly=0.9700 $urx=3.0550 $ury=0.9700 $lvl=8
*|I (Mmn1@3:b Mmn1@3 b X 0 3.4850 0.9700) // $llx=3.4850 $lly=0.9700 $urx=3.4850 $ury=0.9700 $lvl=8
*|S (VSS!:1 1.5500 1.3500) // $llx=1.5500 $lly=1.3500 $urx=1.5500 $ury=1.3500 $lvl=2
*|S (VSS!:3 1.5500 0.9700) // $llx=1.5500 $lly=0.9700 $urx=1.5500 $ury=0.9700 $lvl=2
*|S (VSS!:4 1.5500 0.0000) // $llx=1.5500 $lly=0.0000 $urx=1.5500 $ury=0.0000 $lvl=2
*|S (VSS!:5 0.6900 0.0000) // $llx=0.6900 $lly=0.0000 $urx=0.6900 $ury=0.0000 $lvl=2
*|S (VSS!:6 0.0000 0.0000) // $llx=0.0000 $lly=0.0000 $urx=0.0000 $ury=0.0000 $lvl=2
*|S (VSS!:7 3.2200 0.0000) // $llx=3.2200 $lly=0.0000 $urx=3.2200 $ury=0.0000 $lvl=2
*|S (VSS!:8 3.2200 0.0000) // $llx=3.2200 $lly=0.0000 $urx=3.2200 $ury=0.0000 $lvl=4
*|S (VSS!:11 0.6900 0.9700) // $llx=0.6900 $lly=0.9700 $urx=0.6900 $ury=0.9700 $lvl=2
*|S (VSS!:12 0.6900 1.3500) // $llx=0.6900 $lly=1.3500 $urx=0.6900 $ury=1.3500 $lvl=2
*|S (VSS!:13 6.4400 0.0000) // $llx=6.4400 $lly=0.0000 $urx=6.4400 $ury=0.0000 $lvl=1
*|S (VSS!:14 3.2200 0.0000) // $llx=3.2200 $lly=0.0000 $urx=3.2200 $ury=0.0000 $lvl=1
*|S (VSS!:15 0.0000 0.0000) // $llx=0.0000 $lly=0.0000 $urx=0.0000 $ury=0.0000 $lvl=1
ReF200 VSS!:13 VSS!:14 1.006250 $metal1  $L=3.22 $W=0.400000 $SI_W=0.4 $TYPE=10 $DIR=0 $LLX=3.220000 $LLY=-0.199500 $URX=6.440000 $URY=0.200000 $lvl=1
ReF201 VSS!:14 VSS! 0.029687 $metal1  $L=0.095 $W=0.400000 $SI_W=0.4 $TYPE=10 $DIR=0 $LLX=3.125000 $LLY=-0.199500 $URX=3.220000 $URY=0.200000 $lvl=1
ReF202 VSS! VSS!:15 0.976562 $metal1  $L=3.125 $W=0.400000 $SI_W=0.4 $TYPE=10 $DIR=0 $LLX=0.000000 $LLY=-0.199500 $URX=3.125000 $URY=0.200000 $lvl=1
RfF203 VSS!:1 VSS!:3 28.611765 $li  $L=0.38 $W=0.170000 $SI_W=0.17 $TYPE=10 $DIR=1 $LLX=1.465000 $LLY=0.970000 $URX=1.635000 $URY=1.350000 $lvl=2
RfF204 VSS!:3 VSS!:4 70.010727 $li  $L=0.96975 $W=0.170000 $SI_W=0.17 $TYPE=10 $DIR=1 $LLX=1.465000 $LLY=0.000000 $URX=1.635000 $URY=0.970000 $lvl=2
RfF205 VSS!:4 VSS!:5 44.031998 $li  $L=0.86 $W=0.250000 $SI_W=0.25 $TYPE=10 $DIR=0 $LLX=0.690000 $LLY=-0.124500 $URX=1.550000 $URY=0.125000 $lvl=2
RfF206 VSS!:5 VSS!:6 35.340801 $li  $L=0.69025 $W=0.250000 $SI_W=0.25 $TYPE=10 $DIR=0 $LLX=0.000000 $LLY=-0.124500 $URX=0.690000 $URY=0.125000 $lvl=2
RfF207 VSS!:4 VSS!:7 85.491196 $li  $L=1.66975 $W=0.250000 $SI_W=0.25 $TYPE=10 $DIR=0 $LLX=1.550000 $LLY=-0.124500 $URX=3.220000 $URY=0.125000 $lvl=2
RfF208 VSS!:5 VSS!:11 70.010727 $li  $L=0.96975 $W=0.170000 $SI_W=0.17 $TYPE=10 $DIR=1 $LLX=0.605000 $LLY=0.000000 $URX=0.775000 $URY=0.970000 $lvl=2
RfF209 VSS!:11 VSS!:12 28.611765 $li  $L=0.38 $W=0.170000 $SI_W=0.17 $TYPE=10 $DIR=1 $LLX=0.605000 $LLY=0.970000 $URX=0.775000 $URY=1.350000 $lvl=2
RhF210 Mmn0@1:s VSS!:3 7.500000 $licon_diff  $A=0.0578 $VC=0 $SAVL=0 $SAVC=0 $SI_A=0.0578 $COVER_DIR=0 $LLX=0.000000 $LLY=0.000000 $URX=-0.057800 $URY=-2.000000 $lvl=5
RhF211 Mmn0:s VSS!:11 7.500000 $licon_diff  $A=0.0578 $VC=0 $SAVL=0 $SAVC=0 $SI_A=0.0578 $COVER_DIR=0 $LLX=0.000000 $LLY=0.000000 $URX=-0.057800 $URY=-2.000000 $lvl=5
Rh_3_F212 VSS!:8 VSS!:7 1.153846 $licon_diff  $A=0.3757 $VC=0 $SAVL=0 $SAVC=0 $SI_A=0.3757 $COVER_DIR=0 $LLX=0.000000 $LLY=0.000000 $URX=-0.375700 $URY=-13.000000 $lvl=5
RjF213 VSS!:7 VSS!:14 11.692307 $mcon  $A=0.3757 $VC=0 $SAVL=0 $SAVC=0 $SI_A=0.3757 $COVER_DIR=0 $LLX=0.000000 $LLY=0.000000 $URX=-0.375700 $URY=-13.000000 $lvl=6
RmwF214 Mmn0:b VSS! 0.001000 $FOX $W=1000000 $SI_W=1000000 $TYPE=1 $DIR=0
RmwF215 Mmn0@2:s Mmn0:s 0.001000 $diff $W=1000000 $SI_W=1000000 $TYPE=1 $DIR=0
RmwF216 Mmn0@2:b VSS! 0.001000 $FOX $W=1000000 $SI_W=1000000 $TYPE=1 $DIR=0
RmwF217 Mmn0@1:b VSS! 0.001000 $FOX $W=1000000 $SI_W=1000000 $TYPE=1 $DIR=0
RmwF218 Mmn0@3:s Mmn0@1:s 0.001000 $diff $W=1000000 $SI_W=1000000 $TYPE=1 $DIR=0
RmwF219 Mmn0@3:b VSS! 0.001000 $FOX $W=1000000 $SI_W=1000000 $TYPE=1 $DIR=0
RmwF220 Mmn2:b VSS! 0.001000 $FOX $W=1000000 $SI_W=1000000 $TYPE=1 $DIR=0
RmwF221 Mmn2@3:b VSS! 0.001000 $FOX $W=1000000 $SI_W=1000000 $TYPE=1 $DIR=0
RmwF222 Mmn2@1:b VSS! 0.001000 $FOX $W=1000000 $SI_W=1000000 $TYPE=1 $DIR=0
RmwF223 Mmn2@2:b VSS! 0.001000 $FOX $W=1000000 $SI_W=1000000 $TYPE=1 $DIR=0
RmwF224 Mmn1:b VSS! 0.001000 $FOX $W=1000000 $SI_W=1000000 $TYPE=1 $DIR=0
RmwF225 Mmn1@2:b VSS! 0.001000 $FOX $W=1000000 $SI_W=1000000 $TYPE=1 $DIR=0
RmwF226 Mmn1@1:b VSS! 0.001000 $FOX $W=1000000 $SI_W=1000000 $TYPE=1 $DIR=0
RmwF227 Mmn1@3:b VSS! 0.001000 $FOX $W=1000000 $SI_W=1000000 $TYPE=1 $DIR=0
*
*|NET A 3.64462e-15
*|P (A X 0 0.9350 2.0750) // $llx=0.9350 $lly=2.0750 $urx=0.9350 $ury=2.0750 $lvl=1
*|I (Mmp0:g Mmp0 g X 0 0.4750 3.0150) // $llx=0.4750 $lly=3.0150 $urx=0.4750 $ury=3.0150 $lvl=3
*|I (Mmp0@2:g Mmp0@2 g X 0 0.9050 3.0150) // $llx=0.9050 $lly=3.0150 $urx=0.9050 $ury=3.0150 $lvl=3
*|I (Mmp0@1:g Mmp0@1 g X 0 1.3350 3.0150) // $llx=1.3350 $lly=3.0150 $urx=1.3350 $ury=3.0150 $lvl=3
*|I (Mmp0@3:g Mmp0@3 g X 0 1.7650 3.0150) // $llx=1.7650 $lly=3.0150 $urx=1.7650 $ury=3.0150 $lvl=3
*|I (Mmn0:g Mmn0 g X 0 0.4750 0.9700) // $llx=0.4750 $lly=0.9700 $urx=0.4750 $ury=0.9700 $lvl=3
*|I (Mmn0@2:g Mmn0@2 g X 0 0.9050 0.9700) // $llx=0.9050 $lly=0.9700 $urx=0.9050 $ury=0.9700 $lvl=3
*|I (Mmn0@1:g Mmn0@1 g X 0 1.3350 0.9700) // $llx=1.3350 $lly=0.9700 $urx=1.3350 $ury=0.9700 $lvl=3
*|I (Mmn0@3:g Mmn0@3 g X 0 1.7650 0.9700) // $llx=1.7650 $lly=0.9700 $urx=1.7650 $ury=0.9700 $lvl=3
*|S (A:29 1.7650 3.8950) // $llx=1.7650 $lly=3.8950 $urx=1.7650 $ury=3.8950 $lvl=3
*|S (A:30 1.7650 1.6250) // $llx=1.7650 $lly=1.6250 $urx=1.7650 $ury=1.6250 $lvl=3
*|S (A:31 1.3350 1.6250) // $llx=1.3350 $lly=1.6250 $urx=1.3350 $ury=1.6250 $lvl=3
*|S (A:32 1.1200 1.6250) // $llx=1.1200 $lly=1.6250 $urx=1.1200 $ury=1.6250 $lvl=3
*|S (A:33 0.9050 1.6250) // $llx=0.9050 $lly=1.6250 $urx=0.9050 $ury=1.6250 $lvl=3
*|S (A:34 0.4750 1.6250) // $llx=0.4750 $lly=1.6250 $urx=0.4750 $ury=1.6250 $lvl=3
*|S (A:35 1.7650 0.4400) // $llx=1.7650 $lly=0.4400 $urx=1.7650 $ury=0.4400 $lvl=3
*|S (A:36 1.3350 0.4400) // $llx=1.3350 $lly=0.4400 $urx=1.3350 $ury=0.4400 $lvl=3
*|S (A:37 1.3350 3.8950) // $llx=1.3350 $lly=3.8950 $urx=1.3350 $ury=3.8950 $lvl=3
*|S (A:38 0.9050 0.4400) // $llx=0.9050 $lly=0.4400 $urx=0.9050 $ury=0.4400 $lvl=3
*|S (A:39 0.9050 3.8950) // $llx=0.9050 $lly=3.8950 $urx=0.9050 $ury=3.8950 $lvl=3
*|S (A:40 0.4750 3.8950) // $llx=0.4750 $lly=3.8950 $urx=0.4750 $ury=3.8950 $lvl=3
*|S (A:41 0.4750 0.4400) // $llx=0.4750 $lly=0.4400 $urx=0.4750 $ury=0.4400 $lvl=3
*|S (A:42 1.1200 1.6250) // $llx=1.1200 $lly=1.6250 $urx=1.1200 $ury=1.6250 $lvl=2
*|S (A:43 0.9200 1.6250) // $llx=0.9200 $lly=1.6250 $urx=0.9200 $ury=1.6250 $lvl=2
*|S (A:44 0.9200 2.7200) // $llx=0.9200 $lly=2.7200 $urx=0.9200 $ury=2.7200 $lvl=1
*|S (A:45 0.9200 1.6250) // $llx=0.9200 $lly=1.6250 $urx=0.9200 $ury=1.6250 $lvl=1
*|S (A:46 0.9200 1.4800) // $llx=0.9200 $lly=1.4800 $urx=0.9200 $ury=1.4800 $lvl=1
CA1 Mmn0@3:g VSS! 4.21901e-18 $lvl=3
CA2 Mmn0@2:g VSS! 4.18208e-18 $lvl=3
CA3 Mmn0:g VSS! 3.69761e-18 $lvl=3
CA4 A:45 VSS! 1.18807e-17 $lvl=1
CA5 A:44 VSS! 1.16212e-17 $lvl=1
CA6 A:29 VSS! 6.37354e-18 $lvl=3
CA7 A:37 VSS! 4.31365e-18 $lvl=3
CA8 A:39 VSS! 2.36793e-18 $lvl=3
CA9 A:40 VSS! 2.32358e-18 $lvl=3
CA10 A:36 VSS! 3.14355e-18 $lvl=3
CA11 A:42 VSS! 1.27139e-17 $lvl=2
CA12 A:43 VSS! 5.11183e-18 $lvl=2
CA13 A:32 VSS! 4.22858e-17 $lvl=3
CA14 A:42 n1 6.22539e-18 $lvl1=2 $lvl2=2
CA15 A:42 n1:34 5.82378e-18 $lvl1=2 $lvl2=1
CA16 A:42 n1:11 5.18851e-18 $lvl1=2 $lvl2=2
CA17 A:44 n1:31 4.83293e-18 $lvl1=1 $lvl2=1
CA18 A:32 n1 4.82587e-18 $lvl1=3 $lvl2=2
CA19 A:42 n1:31 4.38202e-18 $lvl1=2 $lvl2=1
CA20 A:43 n1:6 4.31692e-18 $lvl1=2 $lvl2=2
CA21 A:42 n1:29 4.29867e-18 $lvl1=2 $lvl2=1
CA22 A:32 n1:11 4.13321e-18 $lvl1=3 $lvl2=2
CA23 A:44 n1:34 3.98776e-18 $lvl1=1 $lvl2=1
CA24 A:45 n1:29 3.74342e-18 $lvl1=1 $lvl2=1
CA25 A:44 n1:29 3.307e-18 $lvl1=1 $lvl2=1
CA26 A:43 n1:34 2.73616e-18 $lvl1=2 $lvl2=1
CA27 A:42 n1:7 2.71346e-18 $lvl1=2 $lvl2=2
CA28 A:43 n1:7 2.56979e-18 $lvl1=2 $lvl2=2
CA29 A:32 Mmn0@2:d 1.89887e-18 $lvl1=3 $lvl2=4
CA30 A:45 n1:7 1.34806e-18 $lvl1=1 $lvl2=2
CA31 A:43 n1:31 1.34099e-18 $lvl1=2 $lvl2=1
CA32 A:42 n1:12 1.26363e-18 $lvl1=2 $lvl2=2
CA33 A:42 n1:2 1.20355e-18 $lvl1=2 $lvl2=2
CA34 A:32 Mmn0:d 1.15857e-18 $lvl1=3 $lvl2=4
CA35 A:32 n1:31 1.12688e-18 $lvl1=3 $lvl2=1
CA36 A:44 n1 1.08326e-18 $lvl1=1 $lvl2=2
CA37 A:45 n1 8.93966e-19 $lvl1=1 $lvl2=2
CA38 A:32 Mmn0@3:d 8.82677e-19 $lvl1=3 $lvl2=4
CA39 A:36 n1:10 8.04733e-19 $lvl1=3 $lvl2=2
CA40 A:45 n1:6 7.67149e-19 $lvl1=1 $lvl2=2
CA41 Mmn0@3:g n1:15 7.63763e-19 $lvl1=3 $lvl2=2
CA42 A:36 n1:6 1.2572e-16 $lvl1=3 $lvl2=2
CA43 A:45 n1:34 4.42369e-17 $lvl1=1 $lvl2=1
CA44 Mmn0:g n1 1.27705e-16 $lvl1=3 $lvl2=2
CA45 Mmn0@2:g n1:6 1.24881e-16 $lvl1=3 $lvl2=2
CA46 A:42 n1:6 1.42069e-17 $lvl1=2 $lvl2=2
CA47 A:45 n1:31 1.39539e-17 $lvl1=1 $lvl2=1
CA48 A:32 n1:6 1.40569e-17 $lvl1=3 $lvl2=2
CA49 Mmn0@3:g n1:11 1.32445e-16 $lvl1=3 $lvl2=2
CA50 Mmn0@3:g VSS!:4 4.60203e-18 $lvl1=3 $lvl2=2
CA51 Mmn0@2:g VSS!:5 4.39133e-18 $lvl1=3 $lvl2=2
CA52 A:43 VSS!:12 4.25084e-18 $lvl1=2 $lvl2=2
CA53 Mmn0:g VSS!:5 2.82911e-18 $lvl1=3 $lvl2=2
CA54 A:36 VSS!:4 2.56498e-18 $lvl1=3 $lvl2=2
CA55 A:32 Mmn0:s 2.10743e-18 $lvl1=3 $lvl2=4
CA56 A:32 Mmn0@1:s 1.91613e-18 $lvl1=3 $lvl2=4
CA57 A:44 VSS!:14 1.74807e-18 $lvl1=1 $lvl2=1
CA58 A:45 VSS!:14 1.60459e-18 $lvl1=1 $lvl2=1
CA59 A:45 VSS!:12 1.56513e-18 $lvl1=1 $lvl2=2
CA60 A:42 VSS!:12 1.34777e-17 $lvl1=2 $lvl2=2
CA61 A:36 VSS!:1 1.27939e-16 $lvl1=3 $lvl2=2
CA62 A:32 VSS!:12 1.35823e-17 $lvl1=3 $lvl2=2
CA63 Mmn0@3:g VSS!:1 1.31841e-16 $lvl1=3 $lvl2=2
CA64 A:32 VSS!:1 1.39679e-17 $lvl1=3 $lvl2=2
CA65 Mmn0:g VSS!:12 1.33148e-16 $lvl1=3 $lvl2=2
CA66 Mmn0@2:g VSS!:12 1.31606e-16 $lvl1=3 $lvl2=2
CA67 A:42 VSS!:1 1.54095e-17 $lvl1=2 $lvl2=2
CA68 A:37 VDD!:6 8.2045e-18 $lvl1=3 $lvl2=2
CA69 A:45 VDD! 7.26876e-18 $lvl1=1 $lvl2=1
CA70 A:32 VDD! 6.66303e-18 $lvl1=3 $lvl2=1
CA71 A:39 VDD!:6 6.47037e-18 $lvl1=3 $lvl2=2
CA72 A:32 VDD!:9 6.37128e-18 $lvl1=3 $lvl2=2
CA73 A:40 VDD!:4 6.10675e-18 $lvl1=3 $lvl2=2
CA74 A:29 VDD!:10 5.93796e-18 $lvl1=3 $lvl2=2
CA75 A:44 VDD!:39 4.57449e-18 $lvl1=1 $lvl2=1
CA76 A:42 VDD!:9 4.0413e-18 $lvl1=2 $lvl2=2
CA77 A:42 VDD!:1 3.30869e-18 $lvl1=2 $lvl2=2
CA78 A:42 VDD!:13 3.27885e-18 $lvl1=2 $lvl2=2
CA79 A:44 VDD!:13 2.89252e-18 $lvl1=1 $lvl2=2
CA80 A:42 VDD! 2.80947e-18 $lvl1=2 $lvl2=1
CA81 A:32 VDD!:13 2.49344e-18 $lvl1=3 $lvl2=2
CA82 A:45 VDD!:1 2.36569e-18 $lvl1=1 $lvl2=2
CA83 A:32 VDD!:1 1.97162e-18 $lvl1=3 $lvl2=2
CA84 A:44 VDD!:40 1.95858e-18 $lvl1=1 $lvl2=1
CA85 A:39 VDD!:4 1.46971e-18 $lvl1=3 $lvl2=2
CA86 A:40 VDD!:6 1.41147e-18 $lvl1=3 $lvl2=2
CA87 A:44 VDD!:1 1.24176e-17 $lvl1=1 $lvl2=2
CA88 A:37 VDD!:9 2.53757e-16 $lvl1=3 $lvl2=2
CA89 A:44 VDD! 1.81375e-17 $lvl1=1 $lvl2=1
CA90 A:39 VDD!:9 2.53501e-16 $lvl1=3 $lvl2=2
CA91 A:29 VDD!:13 2.51953e-16 $lvl1=3 $lvl2=2
CA92 A:44 VDD!:9 2.24585e-17 $lvl1=1 $lvl2=2
CA93 A:40 VDD!:1 2.56842e-16 $lvl1=3 $lvl2=2
CA94 A:44 Y:48 9.18398e-18 $lvl1=1 $lvl2=1
CA95 A:44 Y:5 6.41649e-18 $lvl1=1 $lvl2=2
CA96 A:44 Y:6 5.63413e-18 $lvl1=1 $lvl2=2
CA97 A:44 Y:10 2.68874e-18 $lvl1=1 $lvl2=2
CA98 A:42 Y:10 2.55512e-18 $lvl1=2 $lvl2=2
CA99 A:32 Y:1 2.38232e-18 $lvl1=3 $lvl2=2
CA100 A:42 Y:5 2.38224e-18 $lvl1=2 $lvl2=2
CA101 A:32 Y:5 2.04843e-18 $lvl1=3 $lvl2=2
CA102 A:32 Y:10 2.03454e-18 $lvl1=3 $lvl2=2
CA103 A:32 Y:6 1.99664e-18 $lvl1=3 $lvl2=2
CA104 A:44 Y:47 1.65591e-18 $lvl1=1 $lvl2=1
CA105 A:42 Y:6 1.30921e-18 $lvl1=2 $lvl2=2
CA106 A:43 Y:5 1.29187e-18 $lvl1=2 $lvl2=2
CA107 A:45 Y:48 1.19963e-18 $lvl1=1 $lvl2=1
CA108 A:39 Y:5 1.13259e-18 $lvl1=3 $lvl2=2
CA109 A:42 Y:11 1.05174e-18 $lvl1=2 $lvl2=2
CA110 A:45 Y:49 9.58257e-19 $lvl1=1 $lvl2=1
CA111 A:42 Y:1 9.18701e-19 $lvl1=2 $lvl2=2
CA112 A:40 Y:5 8.90006e-19 $lvl1=3 $lvl2=2
CA113 A:37 Y:1 8.52999e-19 $lvl1=3 $lvl2=2
CA114 A:39 Y:1 2.55166e-16 $lvl1=3 $lvl2=2
CA115 A:37 Y:6 2.54552e-16 $lvl1=3 $lvl2=2
CA116 A:44 Y:1 1.49796e-17 $lvl1=1 $lvl2=2
CA117 A:40 Y:1 2.5072e-16 $lvl1=3 $lvl2=2
CA118 A:44 Y:49 1.45467e-17 $lvl1=1 $lvl2=1
CA119 A:29 Y:6 2.57259e-16 $lvl1=3 $lvl2=2
CA120 A:44 B:44 2.53764e-18 $lvl1=1 $lvl2=1
ReA1 A:44 A 0.310096 $metal1  $L=0.645 $W=0.260000 $SI_W=0.26 $TYPE=10 $DIR=1 $LLX=0.790000 $LLY=2.075000 $URX=1.050000 $URY=2.720000 $lvl=1
ReA2 A A:45 0.216346 $metal1  $L=0.45 $W=0.260000 $SI_W=0.26 $TYPE=10 $DIR=1 $LLX=0.790000 $LLY=1.625000 $URX=1.050000 $URY=2.075000 $lvl=1
ReA3 A:45 A:46 0.069712 $metal1  $L=0.145 $W=0.260000 $SI_W=0.26 $TYPE=10 $DIR=1 $LLX=0.790000 $LLY=1.480000 $URX=1.050000 $URY=1.625000 $lvl=1
RfA4 A:42 A:43 15.058825 $li  $L=0.2 $W=0.170000 $SI_W=0.17 $TYPE=10 $DIR=0 $LLX=0.920000 $LLY=1.540000 $URX=1.120000 $URY=1.710000 $lvl=2
RgA5 A:29 Mmp0@3:g 282.773346 $poly  $L=0.88 $W=0.150000 $SI_W=0.15 $TYPE=10 $DIR=1 $LLX=1.690000 $LLY=3.015000 $URX=1.840000 $URY=3.895000 $lvl=3
RgA6 Mmp0@3:g A:30 446.572998 $poly  $L=1.38975 $W=0.150000 $SI_W=0.15 $TYPE=10 $DIR=1 $LLX=1.690000 $LLY=1.625000 $URX=1.840000 $URY=3.015000 $lvl=3
RgA7 A:30 A:31 76.762962 $poly  $L=0.43 $W=0.270000 $SI_W=0.27 $TYPE=10 $DIR=0 $LLX=1.335000 $LLY=1.490000 $URX=1.765000 $URY=1.760000 $lvl=3
RgA8 A:31 A:32 38.426109 $poly  $L=0.21525 $W=0.270000 $SI_W=0.27 $TYPE=10 $DIR=0 $LLX=1.120000 $LLY=1.490000 $URX=1.335000 $URY=1.760000 $lvl=3
RgA9 A:32 A:33 38.336849 $poly  $L=0.21475 $W=0.270000 $SI_W=0.27 $TYPE=10 $DIR=0 $LLX=0.905000 $LLY=1.490000 $URX=1.120000 $URY=1.760000 $lvl=3
RgA10 A:33 A:34 76.762962 $poly  $L=0.43 $W=0.270000 $SI_W=0.27 $TYPE=10 $DIR=0 $LLX=0.475000 $LLY=1.490000 $URX=0.905000 $URY=1.760000 $lvl=3
RgA11 A:34 Mmn0:g 210.553665 $poly  $L=0.65525 $W=0.150000 $SI_W=0.15 $TYPE=10 $DIR=1 $LLX=0.400000 $LLY=0.970000 $URX=0.550000 $URY=1.625000 $lvl=3
RgA12 A:30 Mmn0@3:g 210.553665 $poly  $L=0.65525 $W=0.150000 $SI_W=0.15 $TYPE=10 $DIR=1 $LLX=1.690000 $LLY=0.970000 $URX=1.840000 $URY=1.625000 $lvl=3
RgA13 Mmn0@3:g A:35 170.306671 $poly  $L=0.53 $W=0.150000 $SI_W=0.15 $TYPE=10 $DIR=1 $LLX=1.690000 $LLY=0.440000 $URX=1.840000 $URY=0.970000 $lvl=3
RgA14 A:31 Mmn0@1:g 191.237961 $poly  $L=0.65525 $W=0.150000 $SI_W=0.15 $TYPE=10 $DIR=1 $LLX=1.260000 $LLY=0.970000 $URX=1.410000 $URY=1.625000 $lvl=3
RgA15 Mmn0@1:g A:36 170.306671 $poly  $L=0.53 $W=0.150000 $SI_W=0.15 $TYPE=10 $DIR=1 $LLX=1.260000 $LLY=0.440000 $URX=1.410000 $URY=0.970000 $lvl=3
RgA16 A:31 Mmp0@1:g 427.328705 $poly  $L=1.38975 $W=0.150000 $SI_W=0.15 $TYPE=10 $DIR=1 $LLX=1.260000 $LLY=1.625000 $URX=1.410000 $URY=3.015000 $lvl=3
RgA17 Mmp0@1:g A:37 282.773346 $poly  $L=0.88 $W=0.150000 $SI_W=0.15 $TYPE=10 $DIR=1 $LLX=1.260000 $LLY=3.015000 $URX=1.410000 $URY=3.895000 $lvl=3
RgA18 A:33 Mmn0@2:g 191.237961 $poly  $L=0.65525 $W=0.150000 $SI_W=0.15 $TYPE=10 $DIR=1 $LLX=0.830000 $LLY=0.970000 $URX=0.980000 $URY=1.625000 $lvl=3
RgA19 Mmn0@2:g A:38 170.306671 $poly  $L=0.53 $W=0.150000 $SI_W=0.15 $TYPE=10 $DIR=1 $LLX=0.830000 $LLY=0.440000 $URX=0.980000 $URY=0.970000 $lvl=3
RgA20 A:33 Mmp0@2:g 427.328705 $poly  $L=1.38975 $W=0.150000 $SI_W=0.15 $TYPE=10 $DIR=1 $LLX=0.830000 $LLY=1.625000 $URX=0.980000 $URY=3.015000 $lvl=3