*
*|DSPF 1.5
*
*|DATE "Wed Jan  8 21:01:22 2025"
*|VENDOR "Cadence Design Systems"
*|PROGRAM "Cadence Quantus Extraction"
*|VERSION "22.1.0-p089 Linux 64 bit - (Thu Jan 19 11:47:08 PST 2023)"
*|DESIGN NAND2X4_HS
*|DIVIDER /
*|DELIMITER :
*|DeviceFingerDelim "@"
*|BUSBIT []
*|GLOBAL_TEMPERATURE 25
*|OPERATING_TEMPERATURE 25

** *VIA_COVERAGE_CODES
** *index FF FS FP FU SF SS SP SU PF PS PP PU UF US UP UU X_by_Y
** * "FF" stands for Full landing and Full coverage
** *0 0 0 0 0 0 0 0 0 0 0 0 0 0 0 0 0
** *1 0 0 0 0 0 0 0 0 0 0 0 0 0 0 0 1 1x1
** *2 0 0 0 0 0 0 0 0 0 0 0 0 0 0 1 0 1x1
** *3 0 0 0 0 0 0 0 0 0 0 0 0 0 1 0 0 1x1
** *4 0 0 0 0 0 0 0 0 0 0 0 0 1 0 0 0 1x1
** *5 0 0 0 0 0 0 0 0 0 0 0 1 0 0 0 0 1x1
** *6 0 0 0 0 0 0 0 0 0 0 1 0 0 0 0 0 1x1
** *7 0 0 0 0 0 0 0 0 0 1 0 0 0 0 0 0 1x1
** *8 0 0 0 0 0 0 0 0 1 0 0 0 0 0 0 0 1x1
** *9 0 0 0 0 0 0 0 1 0 0 0 0 0 0 0 0 1x1
** *10 0 0 0 0 0 0 1 0 0 0 0 0 0 0 0 0 1x1
** *11 0 0 0 0 0 1 0 0 0 0 0 0 0 0 0 0 1x1
** *12 0 0 0 0 1 0 0 0 0 0 0 0 0 0 0 0 1x1
** *13 0 0 0 1 0 0 0 0 0 0 0 0 0 0 0 0 1x1
** *14 0 0 1 0 0 0 0 0 0 0 0 0 0 0 0 0 1x1
** *15 0 1 0 0 0 0 0 0 0 0 0 0 0 0 0 0 1x1
** *16 1 0 0 0 0 0 0 0 0 0 0 0 0 0 0 0 1x1

** *RESISTOR_TYPES
** *1 SHORTING_ELEMENT
** *2 PRES_NG
** *3 PRES_PG
** *4 PRES_NF
** *5 PRES_PF
** *6 TCN_NDIFF
** *7 TCN_PDIFF
** *8 TCN_NFIELD
** *9 TCN_PFIELD
** *10 QUALITY_EXTRACTED
** *11 GCNLAND
** *12 TCNLAND
** *13 DUMMY
** *14 RSD
** *15 BRIDGE

** *RESISTOR_CURRENT_DIRECTION
** *0 HORIZONTAL
** *1 VERTICAL
** *2 45 DEGREE

** QRC_TECH_DIR /vols/wfo_devel/projects/reference_SKY130/tech/sky130_release_0.0.4/quantus/extraction/typical 
** HIERARCHICAL_SPLIT_PINS_DELIMITER '%'
** caps2d version: 10
*
.SUBCKT  NAND2X4_HS A B Y
*
*Net Section
*
*|GROUND_NET VSS!
*
*LAYER_MAP
*0 none
*1 metal1
*2 li
*3 poly
*4 diff
*5 licon_diff
*6 mcon
*7 licon
*8 FOX

*|NET A 3.58163e-15
*|P (A X 0 0.9350 1.9550) // $llx=0.9350 $lly=1.9550 $urx=0.9350 $ury=1.9550 $lvl=1
*|I (Mmp0:g Mmp0 g X 0 0.4750 3.0150) // $llx=0.4750 $lly=3.0150 $urx=0.4750 $ury=3.0150 $lvl=3
*|I (Mmp0@1:g Mmp0@1 g X 0 0.9050 3.0150) // $llx=0.9050 $lly=3.0150 $urx=0.9050 $ury=3.0150 $lvl=3
*|I (Mmp0@2:g Mmp0@2 g X 0 1.3350 3.0150) // $llx=1.3350 $lly=3.0150 $urx=1.3350 $ury=3.0150 $lvl=3
*|I (Mmp0@3:g Mmp0@3 g X 0 1.7650 3.0150) // $llx=1.7650 $lly=3.0150 $urx=1.7650 $ury=3.0150 $lvl=3
*|I (Mmn0:g Mmn0 g X 0 0.4750 0.9700) // $llx=0.4750 $lly=0.9700 $urx=0.4750 $ury=0.9700 $lvl=3
*|I (Mmn0@1:g Mmn0@1 g X 0 0.9050 0.9700) // $llx=0.9050 $lly=0.9700 $urx=0.9050 $ury=0.9700 $lvl=3
*|I (Mmn0@2:g Mmn0@2 g X 0 1.3350 0.9700) // $llx=1.3350 $lly=0.9700 $urx=1.3350 $ury=0.9700 $lvl=3
*|I (Mmn0@3:g Mmn0@3 g X 0 1.7650 0.9700) // $llx=1.7650 $lly=0.9700 $urx=1.7650 $ury=0.9700 $lvl=3
*|S (A:29 1.7650 3.8950) // $llx=1.7650 $lly=3.8950 $urx=1.7650 $ury=3.8950 $lvl=3
*|S (A:30 1.7650 1.6250) // $llx=1.7650 $lly=1.6250 $urx=1.7650 $ury=1.6250 $lvl=3
*|S (A:31 1.3350 1.6250) // $llx=1.3350 $lly=1.6250 $urx=1.3350 $ury=1.6250 $lvl=3
*|S (A:32 1.1200 1.6250) // $llx=1.1200 $lly=1.6250 $urx=1.1200 $ury=1.6250 $lvl=3
*|S (A:33 0.9050 1.6250) // $llx=0.9050 $lly=1.6250 $urx=0.9050 $ury=1.6250 $lvl=3
*|S (A:34 0.4750 1.6250) // $llx=0.4750 $lly=1.6250 $urx=0.4750 $ury=1.6250 $lvl=3
*|S (A:35 1.7650 0.4400) // $llx=1.7650 $lly=0.4400 $urx=1.7650 $ury=0.4400 $lvl=3
*|S (A:36 1.3350 0.4400) // $llx=1.3350 $lly=0.4400 $urx=1.3350 $ury=0.4400 $lvl=3
*|S (A:37 1.3350 3.8950) // $llx=1.3350 $lly=3.8950 $urx=1.3350 $ury=3.8950 $lvl=3
*|S (A:38 0.9050 0.4400) // $llx=0.9050 $lly=0.4400 $urx=0.9050 $ury=0.4400 $lvl=3
*|S (A:39 0.9050 3.8950) // $llx=0.9050 $lly=3.8950 $urx=0.9050 $ury=3.8950 $lvl=3
*|S (A:40 0.4750 3.8950) // $llx=0.4750 $lly=3.8950 $urx=0.4750 $ury=3.8950 $lvl=3
*|S (A:41 0.4750 0.4400) // $llx=0.4750 $lly=0.4400 $urx=0.4750 $ury=0.4400 $lvl=3
*|S (A:42 1.1200 1.6250) // $llx=1.1200 $lly=1.6250 $urx=1.1200 $ury=1.6250 $lvl=2
*|S (A:43 0.9200 1.6250) // $llx=0.9200 $lly=1.6250 $urx=0.9200 $ury=1.6250 $lvl=2
*|S (A:44 0.9200 2.6000) // $llx=0.9200 $lly=2.6000 $urx=0.9200 $ury=2.6000 $lvl=1
*|S (A:45 0.9200 1.6250) // $llx=0.9200 $lly=1.6250 $urx=0.9200 $ury=1.6250 $lvl=1
*|S (A:46 0.9200 1.3600) // $llx=0.9200 $lly=1.3600 $urx=0.9200 $ury=1.3600 $lvl=1
CA1 Mmn0@1:g VSS! 2.39383e-18 $lvl=3
CA2 Mmn0:g VSS! 2.95624e-18 $lvl=3
CA3 A:45 VSS! 9.64366e-18 $lvl=1
CA4 A:44 VSS! 1.0185e-17 $lvl=1
CA5 A:46 VSS! 6.77087e-18 $lvl=1
CA6 A:29 VSS! 2.26789e-18 $lvl=3
CA7 A:37 VSS! 2.07212e-18 $lvl=3
CA8 A:39 VSS! 3.16505e-18 $lvl=3
CA9 A:40 VSS! 2.47945e-18 $lvl=3
CA10 A:36 VSS! 1.86596e-18 $lvl=3
CA11 A:35 VSS! 4.90523e-18 $lvl=3
CA12 A:42 VSS! 1.29222e-17 $lvl=2
CA13 A:43 VSS! 5.05536e-18 $lvl=2
CA14 A:32 VSS! 3.90178e-17 $lvl=3
CA15 A:42 n0 6.84774e-18 $lvl1=2 $lvl2=2
CA16 A:42 n0:11 6.6161e-18 $lvl1=2 $lvl2=2
CA17 A:46 n0:29 6.38113e-18 $lvl1=1 $lvl2=1
CA18 A:32 n0 5.39124e-18 $lvl1=3 $lvl2=2
CA19 A:43 n0:6 4.72105e-18 $lvl1=2 $lvl2=2
CA20 A:46 n0:6 4.56291e-18 $lvl1=1 $lvl2=2
CA21 A:32 n0:11 4.17577e-18 $lvl1=3 $lvl2=2
CA22 A:45 n0:28 3.90447e-18 $lvl1=1 $lvl2=1
CA23 A:45 n0:29 3.45792e-18 $lvl1=1 $lvl2=1
CA24 A:32 Mmn0@1:d 2.63941e-18 $lvl1=3 $lvl2=4
CA25 A:44 n0:29 2.59401e-18 $lvl1=1 $lvl2=1
CA26 A:42 n0:28 2.3534e-18 $lvl1=2 $lvl2=1
CA27 A:44 n0:28 2.2223e-18 $lvl1=1 $lvl2=1
CA28 A:46 n0:27 2.10619e-18 $lvl1=1 $lvl2=1
CA29 A:46 n0 2.03815e-18 $lvl1=1 $lvl2=2
CA30 A:45 n0:27 1.84719e-18 $lvl1=1 $lvl2=1
CA31 A:42 n0:27 1.80883e-18 $lvl1=2 $lvl2=1
CA32 A:44 n0 1.63828e-18 $lvl1=1 $lvl2=2
CA33 A:45 n0 1.61828e-18 $lvl1=1 $lvl2=2
CA34 A:42 n0:29 1.44952e-18 $lvl1=2 $lvl2=1
CA35 A:44 n0:27 1.22874e-18 $lvl1=1 $lvl2=1
CA36 A:32 Mmn0:d 1.06174e-18 $lvl1=3 $lvl2=4
CA37 A:45 n0:6 1.04524e-18 $lvl1=1 $lvl2=2
CA38 A:43 n0 7.65558e-19 $lvl1=2 $lvl2=2
CA39 A:43 n0:28 6.55736e-19 $lvl1=2 $lvl2=1
CA40 A:46 n0:28 1.50924e-17 $lvl1=1 $lvl2=1
CA41 Mmn0@1:g n0:6 1.2522e-16 $lvl1=3 $lvl2=2
CA42 A:35 n0:11 1.2552e-16 $lvl1=3 $lvl2=2
CA43 A:42 n0:6 1.60266e-17 $lvl1=2 $lvl2=2
CA44 A:36 n0:6 1.24211e-16 $lvl1=3 $lvl2=2
CA45 A:32 n0:6 1.52838e-17 $lvl1=3 $lvl2=2
CA46 Mmn0:g n0 1.26616e-16 $lvl1=3 $lvl2=2
CA47 A:35 VSS!:4 5.10989e-18 $lvl1=3 $lvl2=2
CA48 A:46 VSS!:12 4.75906e-18 $lvl1=1 $lvl2=2
CA49 Mmn0@1:g VSS!:5 4.40149e-18 $lvl1=3 $lvl2=2
CA50 A:43 VSS!:12 4.33468e-18 $lvl1=2 $lvl2=2
CA51 Mmn0:g VSS!:5 3.77523e-18 $lvl1=3 $lvl2=2
CA52 A:36 VSS!:4 3.76378e-18 $lvl1=3 $lvl2=2
CA53 A:44 VSS!:14 2.10798e-18 $lvl1=1 $lvl2=1
CA54 A:32 Mmn0@2:s 1.94481e-18 $lvl1=3 $lvl2=4
CA55 A:32 Mmn0:s 1.90039e-18 $lvl1=3 $lvl2=4
CA56 A:45 VSS!:14 1.56686e-18 $lvl1=1 $lvl2=1
CA57 A:36 VSS!:5 1.47772e-18 $lvl1=3 $lvl2=2
CA58 A:46 VSS!:1 1.45388e-18 $lvl1=1 $lvl2=2
CA59 A:45 VSS!:12 1.38498e-18 $lvl1=1 $lvl2=2
CA60 Mmn0@1:g VSS!:4 1.31822e-18 $lvl1=3 $lvl2=2
CA61 A:46 VSS!:14 1.1824e-18 $lvl1=1 $lvl2=1
CA62 A:45 VSS!:1 8.71943e-19 $lvl1=1 $lvl2=2
CA63 A:32 VSS!:1 1.36642e-17 $lvl1=3 $lvl2=2
CA64 A:42 VSS!:12 1.32772e-17 $lvl1=2 $lvl2=2
CA65 Mmn0:g VSS!:12 1.25612e-16 $lvl1=3 $lvl2=2
CA66 A:35 VSS!:1 1.25208e-16 $lvl1=3 $lvl2=2
CA67 Mmn0@1:g VSS!:12 1.25951e-16 $lvl1=3 $lvl2=2
CA68 A:36 VSS!:1 1.25754e-16 $lvl1=3 $lvl2=2
CA69 A:32 VSS!:12 1.37839e-17 $lvl1=3 $lvl2=2
CA70 A:42 VSS!:1 1.87147e-17 $lvl1=2 $lvl2=2
CA71 A:39 VDD!:5 7.93105e-18 $lvl1=3 $lvl2=2
CA72 A:37 VDD!:5 7.50506e-18 $lvl1=3 $lvl2=2
CA73 A:45 VDD! 7.34111e-18 $lvl1=1 $lvl2=1
CA74 A:29 VDD!:6 6.82736e-18 $lvl1=3 $lvl2=2
CA75 A:40 VDD!:4 6.67886e-18 $lvl1=3 $lvl2=2
CA76 A:32 VDD! 5.97115e-18 $lvl1=3 $lvl2=1
CA77 A:32 VDD!:12 5.22674e-18 $lvl1=3 $lvl2=2
CA78 A:42 VDD! 4.57878e-18 $lvl1=2 $lvl2=1
CA79 A:46 VDD! 4.52451e-18 $lvl1=1 $lvl2=1
CA80 A:42 VDD!:1 4.48938e-18 $lvl1=2 $lvl2=2
CA81 A:42 VDD!:12 3.66469e-18 $lvl1=2 $lvl2=2
CA82 A:44 VDD!:26 3.44889e-18 $lvl1=1 $lvl2=1
CA83 A:32 VDD!:1 3.09645e-18 $lvl1=3 $lvl2=2
CA84 A:44 VDD!:15 2.75151e-18 $lvl1=1 $lvl2=2
CA85 A:32 VDD!:15 2.74397e-18 $lvl1=3 $lvl2=2
CA86 A:42 VDD!:15 2.6346e-18 $lvl1=2 $lvl2=2
CA87 A:29 VDD!:5 1.94228e-18 $lvl1=3 $lvl2=2
CA88 A:45 VDD!:1 1.89609e-18 $lvl1=1 $lvl2=2
CA89 A:40 VDD!:5 1.51311e-18 $lvl1=3 $lvl2=2
CA90 A:44 VDD!:27 1.4192e-18 $lvl1=1 $lvl2=1
CA91 A:37 VDD!:6 1.14583e-18 $lvl1=3 $lvl2=2
CA92 A:44 VDD!:1 1.04437e-17 $lvl1=1 $lvl2=2
CA93 A:44 VDD! 1.86898e-17 $lvl1=1 $lvl2=1
CA94 A:29 VDD!:15 2.49578e-16 $lvl1=3 $lvl2=2
CA95 A:39 VDD!:12 2.54636e-16 $lvl1=3 $lvl2=2
CA96 A:44 VDD!:12 1.94295e-17 $lvl1=1 $lvl2=2
CA97 A:37 VDD!:12 2.54474e-16 $lvl1=3 $lvl2=2
CA98 A:40 VDD!:1 2.59942e-16 $lvl1=3 $lvl2=2
CA99 A:44 Y:37 8.34434e-18 $lvl1=1 $lvl2=1
CA100 A:44 Y:5 7.19196e-18 $lvl1=1 $lvl2=2
CA101 A:44 Y:6 5.34312e-18 $lvl1=1 $lvl2=2
CA102 A:42 Y:10 3.16649e-18 $lvl1=2 $lvl2=2
CA103 A:44 Y:10 3.00055e-18 $lvl1=1 $lvl2=2
CA104 A:42 Y:5 2.67367e-18 $lvl1=2 $lvl2=2
CA105 A:32 Y:10 2.49571e-18 $lvl1=3 $lvl2=2
CA106 A:32 Y:5 2.40569e-18 $lvl1=3 $lvl2=2
CA107 A:42 Y:6 2.40387e-18 $lvl1=2 $lvl2=2
CA108 A:32 Y:6 1.96403e-18 $lvl1=3 $lvl2=2
CA109 A:32 Y:1 1.96106e-18 $lvl1=3 $lvl2=2
CA110 A:44 Y:36 1.46149e-18 $lvl1=1 $lvl2=1
CA111 A:42 Y:1 1.41795e-18 $lvl1=2 $lvl2=2
CA112 A:42 Y:31 1.27252e-18 $lvl1=2 $lvl2=1
CA113 A:44 Y:35 1.17284e-18 $lvl1=1 $lvl2=1
CA114 A:44 Y:31 1.13148e-18 $lvl1=1 $lvl2=1
CA115 A:37 Y:10 1.00176e-18 $lvl1=3 $lvl2=2
CA116 A:39 Y:6 9.70764e-19 $lvl1=3 $lvl2=2
CA117 A:39 Y:5 9.52373e-19 $lvl1=3 $lvl2=2
CA118 A:40 Y:5 9.26526e-19 $lvl1=3 $lvl2=2
CA119 A:29 Y:10 9.22758e-19 $lvl1=3 $lvl2=2
CA120 A:46 Y:31 8.56724e-19 $lvl1=1 $lvl2=1
CA121 A:29 Y:11 7.4005e-19 $lvl1=3 $lvl2=2
CA122 A:45 Y:31 7.35594e-19 $lvl1=1 $lvl2=1
CA123 A:45 Y:10 7.0589e-19 $lvl1=1 $lvl2=2
CA124 A:45 Y:38 6.88915e-19 $lvl1=1 $lvl2=1
CA125 A:45 Y:5 6.79337e-19 $lvl1=1 $lvl2=2
CA126 A:32 Mmp0@2:d 6.56237e-19 $lvl1=3 $lvl2=4
CA127 A:44 Y:38 1.14169e-17 $lvl1=1 $lvl2=1
CA128 A:29 Y:6 2.54646e-16 $lvl1=3 $lvl2=2
CA129 A:44 Y:1 1.21644e-17 $lvl1=1 $lvl2=2
CA130 A:37 Y:6 2.56243e-16 $lvl1=3 $lvl2=2
CA131 A:39 Y:1 2.49418e-16 $lvl1=3 $lvl2=2
CA132 A:40 Y:1 2.51461e-16 $lvl1=3 $lvl2=2
CA133 A:42 B:42 2.21174e-18 $lvl1=2 $lvl2=2
CA134 A:44 B:44 2.1797e-18 $lvl1=1 $lvl2=1
ReA1 A:44 A 0.310096 $metal1  $L=0.645 $W=0.260000 $SI_W=0.26 $TYPE=10 $DIR=1 $LLX=0.790000 $LLY=1.955000 $URX=1.050000 $URY=2.600000 $lvl=1
ReA2 A A:45 0.158654 $metal1  $L=0.33 $W=0.260000 $SI_W=0.26 $TYPE=10 $DIR=1 $LLX=0.790000 $LLY=1.625000 $URX=1.050000 $URY=1.955000 $lvl=1
ReA3 A:45 A:46 0.127404 $metal1  $L=0.265 $W=0.260000 $SI_W=0.26 $TYPE=10 $DIR=1 $LLX=0.790000 $LLY=1.360000 $URX=1.050000 $URY=1.625000 $lvl=1
RfA4 A:42 A:43 15.058825 $li  $L=0.2 $W=0.170000 $SI_W=0.17 $TYPE=10 $DIR=0 $LLX=0.920000 $LLY=1.540000 $URX=1.120000 $URY=1.710000 $lvl=2
RgA5 A:29 Mmp0@3:g 282.773346 $poly  $L=0.88 $W=0.150000 $SI_W=0.15 $TYPE=10 $DIR=1 $LLX=1.690000 $LLY=3.015000 $URX=1.840000 $URY=3.895000 $lvl=3
RgA6 Mmp0@3:g A:30 446.572998 $poly  $L=1.38975 $W=0.150000 $SI_W=0.15 $TYPE=10 $DIR=1 $LLX=1.690000 $LLY=1.625000 $URX=1.840000 $URY=3.015000 $lvl=3
RgA7 A:30 A:31 76.762962 $poly  $L=0.43 $W=0.270000 $SI_W=0.27 $TYPE=10 $DIR=0 $LLX=1.335000 $LLY=1.490000 $URX=1.765000 $URY=1.760000 $lvl=3
RgA8 A:31 A:32 38.426109 $poly  $L=0.21525 $W=0.270000 $SI_W=0.27 $TYPE=10 $DIR=0 $LLX=1.120000 $LLY=1.490000 $URX=1.335000 $URY=1.760000 $lvl=3
RgA9 A:32 A:33 38.336849 $poly  $L=0.21475 $W=0.270000 $SI_W=0.27 $TYPE=10 $DIR=0 $LLX=0.905000 $LLY=1.490000 $URX=1.120000 $URY=1.760000 $lvl=3
RgA10 A:33 A:34 76.762962 $poly  $L=0.43 $W=0.270000 $SI_W=0.27 $TYPE=10 $DIR=0 $LLX=0.475000 $LLY=1.490000 $URX=0.905000 $URY=1.760000 $lvl=3
RgA11 A:34 Mmn0:g 210.553665 $poly  $L=0.65525 $W=0.150000 $SI_W=0.15 $TYPE=10 $DIR=1 $LLX=0.400000 $LLY=0.970000 $URX=0.550000 $URY=1.625000 $lvl=3
RgA12 A:30 Mmn0@3:g 210.553665 $poly  $L=0.65525 $W=0.150000 $SI_W=0.15 $TYPE=10 $DIR=1 $LLX=1.690000 $LLY=0.970000 $URX=1.840000 $URY=1.625000 $lvl=3
RgA13 Mmn0@3:g A:35 170.306671 $poly  $L=0.53 $W=0.150000 $SI_W=0.15 $TYPE=10 $DIR=1 $LLX=1.690000 $LLY=0.440000 $URX=1.840000 $URY=0.970000 $lvl=3
RgA14 A:31 Mmn0@2:g 191.237961 $poly  $L=0.65525 $W=0.150000 $SI_W=0.15 $TYPE=10 $DIR=1 $LLX=1.260000 $LLY=0.970000 $URX=1.410000 $URY=1.625000 $lvl=3
RgA15 Mmn0@2:g A:36 170.306671 $poly  $L=0.53 $W=0.150000 $SI_W=0.15 $TYPE=10 $DIR=1 $LLX=1.260000 $LLY=0.440000 $URX=1.410000 $URY=0.970000 $lvl=3
RgA16 A:31 Mmp0@2:g 427.328705 $poly  $L=1.38975 $W=0.150000 $SI_W=0.15 $TYPE=10 $DIR=1 $LLX=1.260000 $LLY=1.625000 $URX=1.410000 $URY=3.015000 $lvl=3
RgA17 Mmp0@2:g A:37 282.773346 $poly  $L=0.88 $W=0.150000 $SI_W=0.15 $TYPE=10 $DIR=1 $LLX=1.260000 $LLY=3.015000 $URX=1.410000 $URY=3.895000 $lvl=3
RgA18 A:33 Mmn0@1:g 191.237961 $poly  $L=0.65525 $W=0.150000 $SI_W=0.15 $TYPE=10 $DIR=1 $LLX=0.830000 $LLY=0.970000 $URX=0.980000 $URY=1.625000 $lvl=3
RgA19 Mmn0@1:g A:38 170.306671 $poly  $L=0.53 $W=0.150000 $SI_W=0.15 $TYPE=10 $DIR=1 $LLX=0.830000 $LLY=0.440000 $URX=0.980000 $URY=0.970000 $lvl=3
RgA20 A:33 Mmp0@1:g 427.328705 $poly  $L=1.38975 $W=0.150000 $SI_W=0.15 $TYPE=10 $DIR=1 $LLX=0.830000 $LLY=1.625000 $URX=0.980000 $URY=3.015000 $lvl=3
RgA21 Mmp0@1:g A:39 282.773346 $poly  $L=0.88 $W=0.150000 $SI_W=0.15 $TYPE=10 $DIR=1 $LLX=0.830000 $LLY=3.015000 $URX=0.980000 $URY=3.895000 $lvl=3
RgA22 A:34 Mmp0:g 446.572998 $poly  $L=1.38975 $W=0.150000 $SI_W=0.15 $TYPE=10 $DIR=1 $LLX=0.400000 $LLY=1.625000 $URX=0.550000 $URY=3.015000 $lvl=3
RgA23 Mmp0:g A:40 282.773346 $poly  $L=0.88 $W=0.150000 $SI_W=0.15 $TYPE=10 $DIR=1 $LLX=0.400000 $LLY=3.015000 $URX=0.550000 $URY=3.895000 $lvl=3
RgA24 Mmn0:g A:41 170.306671 $poly  $L=0.53 $W=0.150000 $SI_W=0.15 $TYPE=10 $DIR=1 $LLX=0.400000 $LLY=0.440000 $URX=0.550000 $URY=0.970000 $lvl=3
RjA25 A:43 A:45 152.000000 $mcon  $L=0.17 $W=0.17 $A=0.0289 $VC=0 $SAVL=0 $SAVC=0 $SI_A=0.0289 $COVER_DIR=0 $LLX=0.000000 $LLY=0.000000 $URX=0.170000 $URY=0.170000 $lvl=6
RiA26 A:32 A:42 5.000000 $licon  $A=0.0867 $VC=0 $SAVL=0 $SAVC=0 $SI_A=0.0867 $COVER_DIR=0 $LLX=0.000000 $LLY=0.000000 $URX=-0.086700 $URY=-3.000000 $lvl=7
*
*|NET Y 5.16273e-15
*|P (Y X 0 3.2350 2.2750) // $llx=3.2350 $lly=2.2750 $urx=3.2350 $ury=2.2750 $lvl=1
*|I (Mmp0:d Mmp0 d X 0 0.5505 3.0150) // $llx=0.5505 $lly=3.0150 $urx=0.5505 $ury=3.0150 $lvl=4
*|I (Mmp0@1:d Mmp0@1 d X 0 0.8295 3.0150) // $llx=0.8295 $lly=3.0150 $urx=0.8295 $ury=3.0150 $lvl=4
*|I (Mmp0@2:d Mmp0@2 d X 0 1.4105 3.0150) // $llx=1.4105 $lly=3.0150 $urx=1.4105 $ury=3.0150 $lvl=4
*|I (Mmp0@3:d Mmp0@3 d X 0 1.6895 3.0150) // $llx=1.6895 $lly=3.0150 $urx=1.6895 $ury=3.0150 $lvl=4
*|I (Mmp1:d Mmp1 d X 0 2.2705 3.0150) // $llx=2.2705 $lly=3.0150 $urx=2.2705 $ury=3.0150 $lvl=4
*|I (Mmp1@1:d Mmp1@1 d X 0 2.5495 3.0150) // $llx=2.5495 $lly=3.0150 $urx=2.5495 $ury=3.0150 $lvl=4
*|I (Mmp1@2:d Mmp1@2 d X 0 3.1305 3.0150) // $llx=3.1305 $lly=3.0150 $urx=3.1305 $ury=3.0150 $lvl=4
*|I (Mmp1@3:d Mmp1@3 d X 0 3.4095 3.0150) // $llx=3.4095 $lly=3.0150 $urx=3.4095 $ury=3.0150 $lvl=4
*|I (Mmn1:d Mmn1 d X 0 2.2705 0.9700) // $llx=2.2705 $lly=0.9700 $urx=2.2705 $ury=0.9700 $lvl=4
*|I (Mmn1@1:d Mmn1@1 d X 0 2.5495 0.9700) // $llx=2.5495 $lly=0.9700 $urx=2.5495 $ury=0.9700 $lvl=4
*|I (Mmn1@2:d Mmn1@2 d X 0 3.1305 0.9700) // $llx=3.1305 $lly=0.9700 $urx=3.1305 $ury=0.9700 $lvl=4
*|I (Mmn1@3:d Mmn1@3 d X 0 3.4095 0.9700) // $llx=3.4095 $lly=0.9700 $urx=3.4095 $ury=0.9700 $lvl=4
*|S (Y:1 0.6900 3.7450) // $llx=0.6900 $lly=3.7450 $urx=0.6900 $ury=3.7450 $lvl=2
*|S (Y:2 0.6900 3.3850) // $llx=0.6900 $lly=3.3850 $urx=0.6900 $ury=3.3850 $lvl=2
*|S (Y:4 0.6900 3.0150) // $llx=0.6900 $lly=3.0150 $urx=0.6900 $ury=3.0150 $lvl=2
*|S (Y:5 0.6900 2.2850) // $llx=0.6900 $lly=2.2850 $urx=0.6900 $ury=2.2850 $lvl=2
*|S (Y:6 1.5500 3.7450) // $llx=1.5500 $lly=3.7450 $urx=1.5500 $ury=3.7450 $lvl=2
*|S (Y:7 1.5500 3.3850) // $llx=1.5500 $lly=3.3850 $urx=1.5500 $ury=3.3850 $lvl=2
*|S (Y:9 1.5500 3.0150) // $llx=1.5500 $lly=3.0150 $urx=1.5500 $ury=3.0150 $lvl=2
*|S (Y:10 1.5500 2.2850) // $llx=1.5500 $lly=2.2850 $urx=1.5500 $ury=2.2850 $lvl=2
*|S (Y:11 2.4100 3.7450) // $llx=2.4100 $lly=3.7450 $urx=2.4100 $ury=3.7450 $lvl=2
*|S (Y:12 2.4100 3.3850) // $llx=2.4100 $lly=3.3850 $urx=2.4100 $ury=3.3850 $lvl=2
*|S (Y:14 2.4100 3.0150) // $llx=2.4100 $lly=3.0150 $urx=2.4100 $ury=3.0150 $lvl=2
*|S (Y:15 2.4100 2.2850) // $llx=2.4100 $lly=2.2850 $urx=2.4100 $ury=2.2850 $lvl=2
*|S (Y:16 2.4100 1.3500) // $llx=2.4100 $lly=1.3500 $urx=2.4100 $ury=1.3500 $lvl=2
*|S (Y:17 2.4100 1.1850) // $llx=2.4100 $lly=1.1850 $urx=2.4100 $ury=1.1850 $lvl=2
*|S (Y:19 2.4100 0.9700) // $llx=2.4100 $lly=0.9700 $urx=2.4100 $ury=0.9700 $lvl=2
*|S (Y:20 2.4100 0.5900) // $llx=2.4100 $lly=0.5900 $urx=2.4100 $ury=0.5900 $lvl=2
*|S (Y:21 3.2700 3.7450) // $llx=3.2700 $lly=3.7450 $urx=3.2700 $ury=3.7450 $lvl=2
*|S (Y:22 3.2700 3.0250) // $llx=3.2700 $lly=3.0250 $urx=3.2700 $ury=3.0250 $lvl=2
*|S (Y:24 3.2700 3.0150) // $llx=3.2700 $lly=3.0150 $urx=3.2700 $ury=3.0150 $lvl=2
*|S (Y:25 3.2700 2.2850) // $llx=3.2700 $lly=2.2850 $urx=3.2700 $ury=2.2850 $lvl=2
*|S (Y:26 3.2700 1.3500) // $llx=3.2700 $lly=1.3500 $urx=3.2700 $ury=1.3500 $lvl=2
*|S (Y:27 3.2700 1.1850) // $llx=3.2700 $lly=1.1850 $urx=3.2700 $ury=1.1850 $lvl=2
*|S (Y:29 3.2700 0.9700) // $llx=3.2700 $lly=0.9700 $urx=3.2700 $ury=0.9700 $lvl=2
*|S (Y:30 3.2700 0.5900) // $llx=3.2700 $lly=0.5900 $urx=3.2700 $ury=0.5900 $lvl=2
*|S (Y:31 2.2650 1.1850) // $llx=2.2650 $lly=1.1850 $urx=2.2650 $ury=1.1850 $lvl=1
*|S (Y:32 2.4100 1.1850) // $llx=2.4100 $lly=1.1850 $urx=2.4100 $ury=1.1850 $lvl=1
*|S (Y:33 3.2700 1.1850) // $llx=3.2700 $lly=1.1850 $urx=3.2700 $ury=1.1850 $lvl=1
*|S (Y:34 3.2700 3.0250) // $llx=3.2700 $lly=3.0250 $urx=3.2700 $ury=3.0250 $lvl=1
*|S (Y:35 3.2525 3.3850) // $llx=3.2525 $lly=3.3850 $urx=3.2525 $ury=3.3850 $lvl=1
*|S (Y:36 2.4100 3.3850) // $llx=2.4100 $lly=3.3850 $urx=2.4100 $ury=3.3850 $lvl=1
*|S (Y:37 1.5500 3.3850) // $llx=1.5500 $lly=3.3850 $urx=1.5500 $ury=3.3850 $lvl=1
*|S (Y:38 0.6900 3.3850) // $llx=0.6900 $lly=3.3850 $urx=0.6900 $ury=3.3850 $lvl=1
CC1 Mmn1@2:d VSS! 3.67886e-19 $lvl=4
CC2 Mmn1:d VSS! 8.43175e-19 $lvl=4
CC3 Mmp1@2:d VSS! 1.25751e-18 $lvl=4
CC4 Mmp1:d VSS! 9.00636e-19 $lvl=4
CC5 Mmp0@2:d VSS! 1.13847e-18 $lvl=4
CC6 Mmp0:d VSS! 1.45743e-18 $lvl=4
CC7 Y:38 VSS! 5.83208e-18 $lvl=1
CC8 Y:37 VSS! 5.95337e-18 $lvl=1
CC9 Y:36 VSS! 5.90355e-18 $lvl=1
CC10 Y:33 VSS! 6.51635e-18 $lvl=1
CC11 Y:31 VSS! 4.86712e-18 $lvl=1
CC12 Y:35 VSS! 8.36261e-18 $lvl=1
CC13 Y:26 VSS! 6.72835e-18 $lvl=2
CC14 Y:30 VSS! 1.82368e-18 $lvl=2
CC15 Y:21 VSS! 2.63748e-18 $lvl=2
CC16 Y:25 VSS! 2.04889e-18 $lvl=2
CC17 Y:16 VSS! 6.22227e-18 $lvl=2
CC18 Y:20 VSS! 1.51558e-18 $lvl=2
CC19 Y:11 VSS! 6.08645e-18 $lvl=2
CC20 Y:15 VSS! 4.46595e-18 $lvl=2
CC21 Y:6 VSS! 4.5839e-18 $lvl=2
CC22 Y:10 VSS! 4.27991e-18 $lvl=2
CC23 Y:1 VSS! 3.81988e-18 $lvl=2
CC24 Y:5 VSS! 2.93633e-18 $lvl=2
CC25 Y:2 VSS! 1.19962e-18 $lvl=2
CC26 Y:7 VSS! 9.2235e-19 $lvl=2
CC27 Y:17 VSS! 2.24993e-18 $lvl=2
CC28 Y:12 VSS! 7.96025e-19 $lvl=2
CC29 Y:27 VSS! 2.12055e-18 $lvl=2
CC30 Y:22 VSS! 1.83164e-18 $lvl=2
CC31 Y:20 n0:19 8.10814e-18 $lvl1=2 $lvl2=2
CC32 Y:33 n0:19 7.95561e-18 $lvl1=1 $lvl2=2
CC33 Y:30 n0:19 7.79259e-18 $lvl1=2 $lvl2=2
CC34 Y:33 n0:20 7.55222e-18 $lvl1=1 $lvl2=2
CC35 Y:27 n0:19 6.90992e-18 $lvl1=2 $lvl2=2
CC36 Y:27 n0:20 6.78812e-18 $lvl1=2 $lvl2=2
CC37 Y:16 n0:14 5.90014e-18 $lvl1=2 $lvl2=2
CC38 Y:31 n0:19 5.57481e-18 $lvl1=1 $lvl2=2
CC39 Y:26 n0:23 4.70795e-18 $lvl1=2 $lvl2=2
CC40 Y:16 n0:27 4.57542e-18 $lvl1=2 $lvl2=1
CC41 Y:30 n0:20 4.56426e-18 $lvl1=2 $lvl2=2
CC42 Y:20 n0:11 4.53313e-18 $lvl1=2 $lvl2=2
CC43 Y:26 n0:26 4.41217e-18 $lvl1=2 $lvl2=1
CC44 Y:26 n0:24 4.3244e-18 $lvl1=2 $lvl2=1
CC45 Y:17 n0:19 4.06174e-18 $lvl1=2 $lvl2=2
CC46 Y:16 n0:26 3.89691e-18 $lvl1=2 $lvl2=1
CC47 Y:17 n0:11 3.81253e-18 $lvl1=2 $lvl2=2
CC48 Y:31 n0:11 3.75517e-18 $lvl1=1 $lvl2=2
CC49 Y:20 n0:14 3.29635e-18 $lvl1=2 $lvl2=2
CC50 Y:35 n0:24 3.21506e-18 $lvl1=1 $lvl2=1
CC51 Y:30 n0:23 3.02388e-18 $lvl1=2 $lvl2=2
CC52 Y:30 n0:24 2.94096e-18 $lvl1=2 $lvl2=1
CC53 Y:20 n0:27 2.93371e-18 $lvl1=2 $lvl2=1
CC54 Y:27 n0:24 2.8946e-18 $lvl1=2 $lvl2=1
CC55 Y:30 n0:26 2.89441e-18 $lvl1=2 $lvl2=1
CC56 Y:17 n0:27 2.8113e-18 $lvl1=2 $lvl2=1
CC57 Y:35 n0:20 2.54255e-18 $lvl1=1 $lvl2=2
CC58 Y:27 n0:26 2.23715e-18 $lvl1=2 $lvl2=1
CC59 Y:31 n0:28 2.14266e-18 $lvl1=1 $lvl2=1
CC60 Y:20 n0:26 2.11302e-18 $lvl1=2 $lvl2=1
CC61 Y:17 n0:26 1.87094e-18 $lvl1=2 $lvl2=1
CC62 Y:33 n0:27 1.5418e-18 $lvl1=1 $lvl2=1
CC63 Y:27 n0:23 1.23849e-18 $lvl1=2 $lvl2=2
CC64 Y:35 n0:26 1.15607e-18 $lvl1=1 $lvl2=1
CC65 Y:33 n0:23 1.07059e-18 $lvl1=1 $lvl2=2
CC66 Y:16 Mmn0@3:d 1.05603e-18 $lvl1=2 $lvl2=4
CC67 Y:17 n0:14 9.16308e-19 $lvl1=2 $lvl2=2
CC68 Y:31 n0:24 9.06491e-19 $lvl1=1 $lvl2=1
CC69 Y:35 n0:27 8.64928e-19 $lvl1=1 $lvl2=1
CC70 Y:31 n0:14 7.78782e-19 $lvl1=1 $lvl2=2
CC71 Y:35 n0:28 7.48114e-19 $lvl1=1 $lvl2=1
CC72 Y:16 Mmn1@1:s 6.61354e-19 $lvl1=2 $lvl2=4
CC73 Y:38 n0:29 5.91179e-19 $lvl1=1 $lvl2=1
CC74 Y:33 n0:28 5.3641e-19 $lvl1=1 $lvl2=1
CC75 Y:21 n0:20 5.01436e-19 $lvl1=2 $lvl2=2
CC76 Y:5 n0 4.71966e-19 $lvl1=2 $lvl2=2
CC77 Y:37 n0:27 4.29189e-19 $lvl1=1 $lvl2=1
CC78 Y:1 n0 4.25149e-19 $lvl1=2 $lvl2=2
CC79 Mmn1@2:d n0:20 3.8296e-19 $lvl1=4 $lvl2=2
CC80 Y:38 n0 3.43477e-19 $lvl1=1 $lvl2=2
CC81 Mmn1:d n0:19 3.37835e-19 $lvl1=4 $lvl2=2
CC82 Y:26 n0:20 4.2235e-17 $lvl1=2 $lvl2=2
CC83 Y:26 n0:19 4.74162e-17 $lvl1=2 $lvl2=2
CC84 Y:33 n0:26 5.0321e-17 $lvl1=1 $lvl2=1
CC85 Y:31 n0:27 3.25402e-17 $lvl1=1 $lvl2=1
CC86 Y:31 n0:26 3.87634e-17 $lvl1=1 $lvl2=1
CC87 Y:33 n0:24 3.61875e-17 $lvl1=1 $lvl2=1
CC88 Y:16 n0:19 4.87029e-17 $lvl1=2 $lvl2=2
CC89 Y:16 n0:11 4.08654e-17 $lvl1=2 $lvl2=2
CC90 Y:20 VSS!:4 6.33776e-18 $lvl1=2 $lvl2=2
CC91 Y:30 VSS!:4 4.91641e-18 $lvl1=2 $lvl2=2
CC92 Y:16 VSS!:4 4.8824e-18 $lvl1=2 $lvl2=2
CC93 Y:26 VSS!:4 3.91808e-18 $lvl1=2 $lvl2=2
CC94 Y:33 VSS!:14 2.79804e-18 $lvl1=1 $lvl2=1
CC95 Y:31 VSS!:14 2.67874e-18 $lvl1=1 $lvl2=1
CC96 Y:16 VSS!:7 2.22819e-18 $lvl1=2 $lvl2=2
CC97 Y:30 VSS!:7 2.18723e-18 $lvl1=2 $lvl2=2
CC98 Y:30 VSS!:14 2.10655e-18 $lvl1=2 $lvl2=1
CC99 Y:35 VSS!:14 2.09702e-18 $lvl1=1 $lvl2=1
CC100 Y:20 VSS!:14 1.97437e-18 $lvl1=2 $lvl2=1
CC101 Mmn1:d VSS!:4 1.46219e-18 $lvl1=4 $lvl2=2
CC102 Y:26 VSS!:14 1.45212e-18 $lvl1=2 $lvl2=1
CC103 Y:20 VSS!:7 1.39551e-18 $lvl1=2 $lvl2=2
CC104 Mmn1@2:d VSS!:4 1.36124e-18 $lvl1=4 $lvl2=2
CC105 Y:35 VSS!:13 1.09013e-18 $lvl1=1 $lvl2=1
CC106 Y:33 VSS!:13 1.03212e-18 $lvl1=1 $lvl2=1
CC107 Y:37 VSS!:14 9.80279e-19 $lvl1=1 $lvl2=1
CC108 Y:31 VSS!:1 8.94771e-19 $lvl1=1 $lvl2=2
CC109 Y:38 VSS!:14 8.93932e-19 $lvl1=1 $lvl2=1
CC110 Y:21 VSS!:4 7.86813e-19 $lvl1=2 $lvl2=2
CC111 Y:21 VDD!:20 9.85581e-18 $lvl1=2 $lvl2=2
CC112 Y:22 VDD!:23 9.82498e-18 $lvl1=2 $lvl2=2
CC113 Y:36 VDD! 9.51058e-18 $lvl1=1 $lvl2=1
CC114 Y:5 VDD!:1 9.06799e-18 $lvl1=2 $lvl2=2
CC115 Y:10 VDD!:12 8.67566e-18 $lvl1=2 $lvl2=2
CC116 Y:15 VDD!:15 8.26821e-18 $lvl1=2 $lvl2=2
CC117 Y:25 VDD!:23 7.92038e-18 $lvl1=2 $lvl2=2
CC118 Y:10 VDD!:15 7.53031e-18 $lvl1=2 $lvl2=2
CC119 Y:15 VDD!:18 7.1016e-18 $lvl1=2 $lvl2=2
CC120 Y:22 VDD!:18 7.07594e-18 $lvl1=2 $lvl2=2
CC121 Y:5 VDD!:12 7.06089e-18 $lvl1=2 $lvl2=2
CC122 Y:25 VDD!:18 6.83825e-18 $lvl1=2 $lvl2=2
CC123 Y:31 VDD! 6.43509e-18 $lvl1=1 $lvl2=1
CC124 Y:35 VDD!:25 6.4027e-18 $lvl1=1 $lvl2=1
CC125 Y:38 VDD!:27 6.17856e-18 $lvl1=1 $lvl2=1
CC126 Y:36 VDD!:6 6.02143e-18 $lvl1=1 $lvl2=2
CC127 Y:11 VDD!:26 4.63136e-18 $lvl1=2 $lvl2=1
CC128 Y:1 VDD!:26 4.34774e-18 $lvl1=2 $lvl2=1
CC129 Y:6 VDD!:26 4.26175e-18 $lvl1=2 $lvl2=1
CC130 Y:21 VDD!:26 4.17014e-18 $lvl1=2 $lvl2=1
CC131 Y:37 VDD!:6 3.32787e-18 $lvl1=1 $lvl2=2
CC132 Y:35 VDD!:6 3.03165e-18 $lvl1=1 $lvl2=2
CC133 Y:33 VDD!:23 2.84786e-18 $lvl1=1 $lvl2=2
CC134 Y:1 VDD!:6 2.58041e-18 $lvl1=2 $lvl2=2
CC135 Y:6 Mmp0@3:s 2.05729e-18 $lvl1=2 $lvl2=4
CC136 Mmp0:d VDD!:1 2.04337e-18 $lvl1=4 $lvl2=2
CC137 Mmp1:d VDD!:6 1.97366e-18 $lvl1=4 $lvl2=2
CC138 Y:37 VDD!:5 1.88717e-18 $lvl1=1 $lvl2=2
CC139 Y:38 VDD!:6 1.86515e-18 $lvl1=1 $lvl2=2
CC140 Mmp1@2:d VDD!:6 1.73899e-18 $lvl1=4 $lvl2=2
CC141 Y:38 VDD!:5 1.59625e-18 $lvl1=1 $lvl2=2
CC142 Y:22 VDD!:26 1.56729e-18 $lvl1=2 $lvl2=1
CC143 Y:38 VDD!:4 1.50754e-18 $lvl1=1 $lvl2=2
CC144 Y:7 VDD!:12 1.44983e-18 $lvl1=2 $lvl2=2
CC145 Y:2 VDD!:1 1.41025e-18 $lvl1=2 $lvl2=2
CC146 Mmp1:d VDD!:18 1.36217e-18 $lvl1=4 $lvl2=2
CC147 Y:12 VDD!:18 1.36089e-18 $lvl1=2 $lvl2=2
CC148 Y:35 VDD!:20 1.34922e-18 $lvl1=1 $lvl2=2
CC149 Y:5 VDD! 1.21621e-18 $lvl1=2 $lvl2=1
CC150 Y:1 VDD!:7 1.18526e-18 $lvl1=2 $lvl2=4
CC151 Y:12 VDD!:15 1.18199e-18 $lvl1=2 $lvl2=2
CC152 Y:2 VDD!:12 1.14531e-18 $lvl1=2 $lvl2=2
CC153 Y:7 VDD!:15 1.12812e-18 $lvl1=2 $lvl2=2
CC154 Mmp1:d VDD!:15 1.10035e-18 $lvl1=4 $lvl2=2
CC155 Y:21 VDD!:7 1.09142e-18 $lvl1=2 $lvl2=4
CC156 Mmp0@2:d VDD!:12 1.03626e-18 $lvl1=4 $lvl2=2
CC157 Y:37 VDD!:1 1.03414e-18 $lvl1=1 $lvl2=2
CC158 Y:6 VDD!:7 9.98283e-19 $lvl1=2 $lvl2=4
CC159 Y:22 VDD!:6 9.53358e-19 $lvl1=2 $lvl2=2
CC160 Y:11 Mmp0@3:s 9.44882e-19 $lvl1=2 $lvl2=4
CC161 Y:21 Mmp1@3:s 9.08755e-19 $lvl1=2 $lvl2=4
CC162 Y:26 VDD! 8.98764e-19 $lvl1=2 $lvl2=1
CC163 Y:21 Mmp1@1:s 8.75193e-19 $lvl1=2 $lvl2=4
CC164 Mmp0@2:d VDD!:15 8.58464e-19 $lvl1=4 $lvl2=2
CC165 Y:35 VDD!:24 8.09049e-19 $lvl1=1 $lvl2=2
CC166 Mmp0:d VDD!:5 8.00534e-19 $lvl1=4 $lvl2=2
CC167 Y:37 VDD!:27 7.98639e-19 $lvl1=1 $lvl2=1
CC168 Y:1 Mmp0:s 7.59746e-19 $lvl1=2 $lvl2=4
CC169 Y:1 VDD!:27 7.53129e-19 $lvl1=2 $lvl2=1
CC170 Y:6 Mmp0@1:s 7.41988e-19 $lvl1=2 $lvl2=4
CC171 Y:11 VDD!:7 6.77907e-19 $lvl1=2 $lvl2=4
CC172 Y:25 VDD! 6.45945e-19 $lvl1=2 $lvl2=1
CC173 Y:10 VDD! 6.42299e-19 $lvl1=2 $lvl2=1
CC174 Y:33 VDD!:26 6.36512e-19 $lvl1=1 $lvl2=1
CC175 Y:35 Mmp1@3:s 6.12208e-19 $lvl1=1 $lvl2=4
CC176 Y:36 VDD!:25 5.97807e-19 $lvl1=1 $lvl2=1
CC177 Y:15 VDD! 5.7383e-19 $lvl1=2 $lvl2=1
CC178 Y:22 VDD! 5.50937e-19 $lvl1=2 $lvl2=1
CC179 Y:1 Mmp0@1:s 5.37787e-19 $lvl1=2 $lvl2=4
CC180 Y:31 VDD!:26 5.26775e-19 $lvl1=1 $lvl2=1
CC181 Y:16 VDD! 4.932e-19 $lvl1=2 $lvl2=1
CC182 Y:35 VDD!:15 4.80711e-19 $lvl1=1 $lvl2=2
CC183 Y:6 VDD!:5 1.26536e-17 $lvl1=2 $lvl2=2
CC184 Y:11 VDD!:6 2.72419e-17 $lvl1=2 $lvl2=2
CC185 Y:6 VDD!:12 1.05366e-16 $lvl1=2 $lvl2=2
CC186 Y:36 VDD!:18 1.2807e-17 $lvl1=1 $lvl2=2
CC187 Y:38 VDD! 1.41077e-17 $lvl1=1 $lvl2=1
CC188 Y:37 VDD! 1.0721e-17 $lvl1=1 $lvl2=1
CC189 Y:38 VDD!:1 1.35752e-17 $lvl1=1 $lvl2=2
CC190 Y:1 VDD!:1 1.10439e-16 $lvl1=2 $lvl2=2
CC191 Y:36 VDD!:26 4.25772e-17 $lvl1=1 $lvl2=1
CC192 Y:35 VDD!:26 4.32951e-17 $lvl1=1 $lvl2=1
CC193 Y:33 VDD! 1.49628e-17 $lvl1=1 $lvl2=1
CC194 Y:6 VDD!:15 1.08484e-16 $lvl1=2 $lvl2=2
CC195 Y:35 VDD!:23 3.16369e-17 $lvl1=1 $lvl2=2
CC196 Y:21 VDD! 1.20112e-17 $lvl1=2 $lvl2=1
CC197 Y:1 VDD!:5 1.28272e-17 $lvl1=2 $lvl2=2
CC198 Y:35 VDD! 3.37523e-17 $lvl1=1 $lvl2=1
CC199 Y:37 VDD!:12 1.24024e-17 $lvl1=1 $lvl2=2
CC200 Y:35 VDD!:18 2.21692e-17 $lvl1=1 $lvl2=2
CC201 Y:11 VDD! 1.0945e-17 $lvl1=2 $lvl2=1
CC202 Y:37 VDD!:26 4.28546e-17 $lvl1=1 $lvl2=1
CC203 Y:1 VDD!:12 1.04006e-16 $lvl1=2 $lvl2=2
CC204 Y:21 VDD!:23 1.0412e-16 $lvl1=2 $lvl2=2
CC205 Y:6 VDD! 1.25386e-17 $lvl1=2 $lvl2=1
CC206 Y:38 VDD!:12 1.27862e-17 $lvl1=1 $lvl2=2
CC207 Y:36 VDD!:15 1.41636e-17 $lvl1=1 $lvl2=2
CC208 Y:21 VDD!:6 1.60457e-17 $lvl1=2 $lvl2=2
CC209 Y:21 VDD!:18 9.57507e-17 $lvl1=2 $lvl2=2
CC210 Y:1 VDD! 1.31893e-17 $lvl1=2 $lvl2=1
CC211 Y:1 VDD!:4 1.30311e-17 $lvl1=2 $lvl2=2
CC212 Y:6 VDD!:6 1.35273e-17 $lvl1=2 $lvl2=2
CC213 Y:38 VDD!:26 3.35306e-17 $lvl1=1 $lvl2=1
CC214 Y:37 VDD!:15 1.61351e-17 $lvl1=1 $lvl2=2
CC215 Y:11 VDD!:18 9.46821e-17 $lvl1=2 $lvl2=2
CC216 Y:11 VDD!:15 9.52836e-17 $lvl1=2 $lvl2=2
ReC53 Y:31 Y:32 0.078804 $metal1  $L=0.145 $W=0.230000 $SI_W=0.23 $TYPE=10 $DIR=0 $LLX=2.265000 $LLY=1.070000 $URX=2.410000 $URY=1.300000 $lvl=1
ReC54 Y:32 Y:33 0.467391 $metal1  $L=0.86 $W=0.230000 $SI_W=0.23 $TYPE=10 $DIR=0 $LLX=2.410000 $LLY=1.070000 $URX=3.270000 $URY=1.300000 $lvl=1
ReC55 Y:33 Y 0.419231 $metal1  $L=1.09 $W=0.325000 $SI_W=0.325 $TYPE=10 $DIR=1 $LLX=3.090000 $LLY=1.185000 $URX=3.415000 $URY=2.275000 $lvl=1
ReC56 Y Y:34 0.288462 $metal1  $L=0.75 $W=0.325000 $SI_W=0.325 $TYPE=10 $DIR=1 $LLX=3.072500 $LLY=2.275000 $URX=3.397500 $URY=3.025000 $lvl=1
ReC57 Y:34 Y:35 0.138558 $metal1  $L=0.36025 $W=0.325000 $SI_W=0.325 $TYPE=10 $DIR=1 $LLX=3.090000 $LLY=3.025000 $URX=3.415000 $URY=3.385000 $lvl=1
ReC58 Y:35 Y:36 0.363254 $metal1  $L=0.84275 $W=0.290000 $SI_W=0.29 $TYPE=10 $DIR=0 $LLX=2.409500 $LLY=3.240000 $URX=3.252500 $URY=3.530000 $lvl=1
ReC59 Y:36 Y:37 0.370690 $metal1  $L=0.86 $W=0.290000 $SI_W=0.29 $TYPE=10 $DIR=0 $LLX=1.550000 $LLY=3.240000 $URX=2.410000 $URY=3.530000 $lvl=1
ReC60 Y:37 Y:38 0.370690 $metal1  $L=0.86 $W=0.290000 $SI_W=0.29 $TYPE=10 $DIR=0 $LLX=0.690000 $LLY=3.240000 $URX=1.550000 $URY=3.530000 $lvl=1
RfC61 Y:1 Y:2 27.105881 $li  $L=0.36 $W=0.170000 $SI_W=0.17 $TYPE=10 $DIR=1 $LLX=0.605000 $LLY=3.385000 $URX=0.775000 $URY=3.745000 $lvl=2
RfC62 Y:2 Y:4 27.858822 $li  $L=0.37 $W=0.170000 $SI_W=0.17 $TYPE=10 $DIR=1 $LLX=0.605000 $LLY=3.015000 $URX=0.775000 $URY=3.385000 $lvl=2
RfC63 Y:4 Y:5 54.964703 $li  $L=0.73 $W=0.170000 $SI_W=0.17 $TYPE=10 $DIR=1 $LLX=0.605000 $LLY=2.285000 $URX=0.775000 $URY=3.015000 $lvl=2
RfC64 Y:6 Y:7 27.105881 $li  $L=0.36 $W=0.170000 $SI_W=0.17 $TYPE=10 $DIR=1 $LLX=1.465000 $LLY=3.385000 $URX=1.635000 $URY=3.745000 $lvl=2
RfC65 Y:7 Y:9 27.858822 $li  $L=0.37 $W=0.170000 $SI_W=0.17 $TYPE=10 $DIR=1 $LLX=1.465000 $LLY=3.015000 $URX=1.635000 $URY=3.385000 $lvl=2
RfC66 Y:9 Y:10 54.964703 $li  $L=0.73 $W=0.170000 $SI_W=0.17 $TYPE=10 $DIR=1 $LLX=1.465000 $LLY=2.285000 $URX=1.635000 $URY=3.015000 $lvl=2
RfC67 Y:11 Y:12 27.105881 $li  $L=0.36 $W=0.170000 $SI_W=0.17 $TYPE=10 $DIR=1 $LLX=2.325000 $LLY=3.385000 $URX=2.495000 $URY=3.745000 $lvl=2
RfC68 Y:12 Y:14 27.858822 $li  $L=0.37 $W=0.170000 $SI_W=0.17 $TYPE=10 $DIR=1 $LLX=2.325000 $LLY=3.015000 $URX=2.495000 $URY=3.385000 $lvl=2
RfC69 Y:14 Y:15 54.964703 $li  $L=0.73 $W=0.170000 $SI_W=0.17 $TYPE=10 $DIR=1 $LLX=2.325000 $LLY=2.285000 $URX=2.495000 $URY=3.015000 $lvl=2
RfC70 Y:16 Y:17 12.423529 $li  $L=0.165 $W=0.170000 $SI_W=0.17 $TYPE=10 $DIR=1 $LLX=2.325000 $LLY=1.185000 $URX=2.495000 $URY=1.350000 $lvl=2
RfC71 Y:17 Y:19 16.188236 $li  $L=0.215 $W=0.170000 $SI_W=0.17 $TYPE=10 $DIR=1 $LLX=2.325000 $LLY=0.970000 $URX=2.495000 $URY=1.185000 $lvl=2