*
*|DSPF 1.5
*
*|DATE "Wed Jan  8 20:56:38 2025"
*|VENDOR "Cadence Design Systems"
*|PROGRAM "Cadence Quantus Extraction"
*|VERSION "22.1.0-p089 Linux 64 bit - (Thu Jan 19 11:47:08 PST 2023)"
*|DESIGN NAND3X2_HS
*|DIVIDER /
*|DELIMITER :
*|DeviceFingerDelim "@"
*|BUSBIT []
*|GLOBAL_TEMPERATURE 25
*|OPERATING_TEMPERATURE 25

** *VIA_COVERAGE_CODES
** *index FF FS FP FU SF SS SP SU PF PS PP PU UF US UP UU X_by_Y
** * "FF" stands for Full landing and Full coverage
** *0 0 0 0 0 0 0 0 0 0 0 0 0 0 0 0 0
** *1 0 0 0 0 0 0 0 0 0 0 0 0 0 0 0 1 1x1
** *2 0 0 0 0 0 0 0 0 0 0 0 0 0 0 1 0 1x1
** *3 0 0 0 0 0 0 0 0 0 0 0 0 0 1 0 0 1x1
** *4 0 0 0 0 0 0 0 0 0 0 0 0 1 0 0 0 1x1
** *5 0 0 0 0 0 0 0 0 0 0 0 1 0 0 0 0 1x1
** *6 0 0 0 0 0 0 0 0 0 0 1 0 0 0 0 0 1x1
** *7 0 0 0 0 0 0 0 0 0 1 0 0 0 0 0 0 1x1
** *8 0 0 0 0 0 0 0 0 1 0 0 0 0 0 0 0 1x1
** *9 0 0 0 0 0 0 0 1 0 0 0 0 0 0 0 0 1x1
** *10 0 0 0 0 0 0 1 0 0 0 0 0 0 0 0 0 1x1
** *11 0 0 0 0 0 1 0 0 0 0 0 0 0 0 0 0 1x1
** *12 0 0 0 0 1 0 0 0 0 0 0 0 0 0 0 0 1x1
** *13 0 0 0 1 0 0 0 0 0 0 0 0 0 0 0 0 1x1
** *14 0 0 1 0 0 0 0 0 0 0 0 0 0 0 0 0 1x1
** *15 0 1 0 0 0 0 0 0 0 0 0 0 0 0 0 0 1x1
** *16 1 0 0 0 0 0 0 0 0 0 0 0 0 0 0 0 1x1

** *RESISTOR_TYPES
** *1 SHORTING_ELEMENT
** *2 PRES_NG
** *3 PRES_PG
** *4 PRES_NF
** *5 PRES_PF
** *6 TCN_NDIFF
** *7 TCN_PDIFF
** *8 TCN_NFIELD
** *9 TCN_PFIELD
** *10 QUALITY_EXTRACTED
** *11 GCNLAND
** *12 TCNLAND
** *13 DUMMY
** *14 RSD
** *15 BRIDGE

** *RESISTOR_CURRENT_DIRECTION
** *0 HORIZONTAL
** *1 VERTICAL
** *2 45 DEGREE

** QRC_TECH_DIR /vols/wfo_devel/projects/reference_SKY130/tech/sky130_release_0.0.4/quantus/extraction/typical 
** HIERARCHICAL_SPLIT_PINS_DELIMITER '%'
** caps2d version: 10
*
.SUBCKT  NAND3X2_HS A B C Y
*
*Net Section
*
*|GROUND_NET VSS!
*
*LAYER_MAP
*0 none
*1 metal1
*2 li
*3 poly
*4 diff
*5 licon_diff
*6 mcon
*7 licon
*8 FOX

*|NET n0 1.61876e-15
*|I (Mmn2:s Mmn2 s X 0 2.6395 0.7750) // $llx=2.6395 $lly=0.7750 $urx=2.6395 $ury=0.7750 $lvl=4
*|I (Mmn2@1:s Mmn2@1 s X 0 3.2205 0.7750) // $llx=3.2205 $lly=0.7750 $urx=3.2205 $ury=0.7750 $lvl=4
*|I (Mmn1:d Mmn1 d X 0 1.4105 0.7750) // $llx=1.4105 $lly=0.7750 $urx=1.4105 $ury=0.7750 $lvl=4
*|I (Mmn1@1:d Mmn1@1 d X 0 1.6895 0.7750) // $llx=1.6895 $lly=0.7750 $urx=1.6895 $ury=0.7750 $lvl=4
*|S (n0 1.5500 1.1550) // $llx=1.5500 $lly=1.1550 $urx=1.5500 $ury=1.1550 $lvl=2
*|S (n0:3 1.5500 0.7750) // $llx=1.5500 $lly=0.7750 $urx=1.5500 $ury=0.7750 $lvl=2
*|S (n0:4 1.5500 0.5600) // $llx=1.5500 $lly=0.5600 $urx=1.5500 $ury=0.5600 $lvl=2
*|S (n0:5 2.5000 1.1550) // $llx=2.5000 $lly=1.1550 $urx=2.5000 $ury=1.1550 $lvl=2
*|S (n0:7 2.5000 0.7750) // $llx=2.5000 $lly=0.7750 $urx=2.5000 $ury=0.7750 $lvl=2
*|S (n0:8 2.5000 0.5600) // $llx=2.5000 $lly=0.5600 $urx=2.5000 $ury=0.5600 $lvl=2
*|S (n0:9 3.3600 1.1550) // $llx=3.3600 $lly=1.1550 $urx=3.3600 $ury=1.1550 $lvl=2
*|S (n0:11 3.3600 0.7750) // $llx=3.3600 $lly=0.7750 $urx=3.3600 $ury=0.7750 $lvl=2
*|S (n0:12 3.3600 0.5600) // $llx=3.3600 $lly=0.5600 $urx=3.3600 $ury=0.5600 $lvl=2
*|S (n0:13 3.5050 0.5600) // $llx=3.5050 $lly=0.5600 $urx=3.5050 $ury=0.5600 $lvl=1
*|S (n0:14 3.3600 0.5600) // $llx=3.3600 $lly=0.5600 $urx=3.3600 $ury=0.5600 $lvl=1
*|S (n0:15 2.5000 0.5600) // $llx=2.5000 $lly=0.5600 $urx=2.5000 $ury=0.5600 $lvl=1
*|S (n0:16 1.5500 0.5600) // $llx=1.5500 $lly=0.5600 $urx=1.5500 $ury=0.5600 $lvl=1
*|S (n0:17 1.4050 0.5600) // $llx=1.4050 $lly=0.5600 $urx=1.4050 $ury=0.5600 $lvl=1
CH1 Mmn1:d VSS! 1.30192e-18 $lvl=4
CH2 Mmn2@1:s VSS! 2.55244e-18 $lvl=4
CH3 Mmn2:s VSS! 1.42784e-18 $lvl=4
CH4 n0:15 VSS! 7.19874e-18 $lvl=1
CH5 n0:13 VSS! 8.69491e-18 $lvl=1
CH6 n0:17 VSS! 6.63244e-18 $lvl=1
CH7 n0:9 VSS! 1.70109e-17 $lvl=2
CH8 n0:7 VSS! 1.60465e-17 $lvl=2
CH9 n0:4 VSS! 6.07364e-19 $lvl=2
CH10 n0:8 VSS! 2.38236e-18 $lvl=2
CH11 n0:12 VSS! 1.2792e-18 $lvl=2
CH12 n0 VSS! 1.36786e-17 $lvl=2
CH13 n0:9 VSS!:9 3.82246e-18 $lvl1=2 $lvl2=1
CH14 n0:4 VSS!:10 3.64477e-18 $lvl1=2 $lvl2=1
CH15 n0:7 VSS!:6 3.60374e-18 $lvl1=2 $lvl2=2
CH16 n0:15 VSS!:6 3.40824e-18 $lvl1=1 $lvl2=2
CH17 n0:9 VSS!:7 3.37464e-18 $lvl1=2 $lvl2=4
CH18 n0:15 VSS!:4 3.27403e-18 $lvl1=1 $lvl2=2
CH19 n0:12 VSS!:9 3.25038e-18 $lvl1=2 $lvl2=1
CH20 Mmn2:s VSS!:4 3.15699e-18 $lvl1=4 $lvl2=2
CH21 n0:13 VSS!:4 3.09872e-18 $lvl1=1 $lvl2=2
CH22 n0:17 VSS!:6 2.99738e-18 $lvl1=1 $lvl2=2
CH23 n0:12 VSS!:10 2.94066e-18 $lvl1=2 $lvl2=1
CH24 n0:4 VSS!:4 2.88327e-18 $lvl1=2 $lvl2=2
CH25 n0:7 VSS!:10 2.87455e-18 $lvl1=2 $lvl2=1
CH26 n0:17 VSS!:4 2.55817e-18 $lvl1=1 $lvl2=2
CH27 n0:12 VSS!:4 2.5006e-18 $lvl1=2 $lvl2=2
CH28 n0:9 VSS!:10 2.46362e-18 $lvl1=2 $lvl2=1
CH29 n0:8 VSS!:10 2.42513e-18 $lvl1=2 $lvl2=1
CH30 n0 VSS!:6 2.33204e-18 $lvl1=2 $lvl2=2
CH31 n0:4 VSS!:6 2.26505e-18 $lvl1=2 $lvl2=2
CH32 Mmn1:d VSS!:4 2.08319e-18 $lvl1=4 $lvl2=2
CH33 n0:7 VSS!:7 2.05301e-18 $lvl1=2 $lvl2=4
CH34 n0 VSS!:10 1.99376e-18 $lvl1=2 $lvl2=1
CH35 n0:9 VSS!:6 1.92468e-18 $lvl1=2 $lvl2=2
CH36 n0:8 VSS!:4 1.79173e-18 $lvl1=2 $lvl2=2
CH37 n0:8 VSS!:6 1.5119e-18 $lvl1=2 $lvl2=2
CH38 n0 VSS!:7 1.48466e-18 $lvl1=2 $lvl2=4
CH39 Mmn2@1:s VSS!:4 1.37415e-18 $lvl1=4 $lvl2=2
CH40 n0:12 VSS!:6 1.36289e-18 $lvl1=2 $lvl2=2
CH41 n0:13 VSS!:10 3.53815e-17 $lvl1=1 $lvl2=1
CH42 n0 VSS!:4 2.00133e-17 $lvl1=2 $lvl2=2
CH43 n0:9 VSS!:4 2.4445e-17 $lvl1=2 $lvl2=2
CH44 n0:13 VSS!:9 1.88863e-17 $lvl1=1 $lvl2=1
CH45 n0:17 VSS!:10 6.09929e-17 $lvl1=1 $lvl2=1
CH46 n0:15 VSS!:10 7.00923e-17 $lvl1=1 $lvl2=1
CH47 n0:7 VSS!:4 2.4088e-17 $lvl1=2 $lvl2=2
ReH159 n0:13 n0:14 0.078804 $metal1  $L=0.145 $W=0.230000 $SI_W=0.23 $TYPE=10 $DIR=0 $LLX=3.360000 $LLY=0.445000 $URX=3.505000 $URY=0.675000 $lvl=1
ReH160 n0:14 n0:15 0.467391 $metal1  $L=0.86 $W=0.230000 $SI_W=0.23 $TYPE=10 $DIR=0 $LLX=2.500000 $LLY=0.445000 $URX=3.360000 $URY=0.675000 $lvl=1
ReH161 n0:15 n0:16 0.516304 $metal1  $L=0.95 $W=0.230000 $SI_W=0.23 $TYPE=10 $DIR=0 $LLX=1.550000 $LLY=0.445000 $URX=2.500000 $URY=0.675000 $lvl=1
ReH162 n0:16 n0:17 0.078804 $metal1  $L=0.145 $W=0.230000 $SI_W=0.23 $TYPE=10 $DIR=0 $LLX=1.405000 $LLY=0.445000 $URX=1.550000 $URY=0.675000 $lvl=1
RfH163 n0 n0:3 28.611765 $li  $L=0.38 $W=0.170000 $SI_W=0.17 $TYPE=10 $DIR=1 $LLX=1.465000 $LLY=0.775000 $URX=1.635000 $URY=1.155000 $lvl=2
RfH164 n0:3 n0:4 16.188236 $li  $L=0.215 $W=0.170000 $SI_W=0.17 $TYPE=10 $DIR=1 $LLX=1.465000 $LLY=0.560000 $URX=1.635000 $URY=0.775000 $lvl=2
RfH165 n0:5 n0:7 28.611765 $li  $L=0.38 $W=0.170000 $SI_W=0.17 $TYPE=10 $DIR=1 $LLX=2.415000 $LLY=0.775000 $URX=2.585000 $URY=1.155000 $lvl=2
RfH166 n0:7 n0:8 16.188236 $li  $L=0.215 $W=0.170000 $SI_W=0.17 $TYPE=10 $DIR=1 $LLX=2.415000 $LLY=0.560000 $URX=2.585000 $URY=0.775000 $lvl=2
RfH167 n0:9 n0:11 28.611765 $li  $L=0.38 $W=0.170000 $SI_W=0.17 $TYPE=10 $DIR=1 $LLX=3.275000 $LLY=0.775000 $URX=3.445000 $URY=1.155000 $lvl=2
RfH168 n0:11 n0:12 16.188236 $li  $L=0.215 $W=0.170000 $SI_W=0.17 $TYPE=10 $DIR=1 $LLX=3.275000 $LLY=0.560000 $URX=3.445000 $URY=0.775000 $lvl=2
RhH169 Mmn1:d n0:3 7.500000 $licon_diff  $A=0.0578 $VC=0 $SAVL=0 $SAVC=0 $SI_A=0.0578 $COVER_DIR=0 $LLX=0.000000 $LLY=0.000000 $URX=-0.057800 $URY=-2.000000 $lvl=5
RhH170 Mmn2:s n0:7 7.500000 $licon_diff  $A=0.0578 $VC=0 $SAVL=0 $SAVC=0 $SI_A=0.0578 $COVER_DIR=0 $LLX=0.000000 $LLY=0.000000 $URX=-0.057800 $URY=-2.000000 $lvl=5
RhH171 Mmn2@1:s n0:11 7.500000 $licon_diff  $A=0.0578 $VC=0 $SAVL=0 $SAVC=0 $SI_A=0.0578 $COVER_DIR=0 $LLX=0.000000 $LLY=0.000000 $URX=-0.057800 $URY=-2.000000 $lvl=5
RjH172 n0:12 n0:14 152.000000 $mcon  $L=0.17 $W=0.17 $A=0.0289 $VC=0 $SAVL=0 $SAVC=0 $SI_A=0.0289 $COVER_DIR=0 $LLX=0.000000 $LLY=0.000000 $URX=0.170000 $URY=0.170000 $lvl=6
RjH173 n0:8 n0:15 152.000000 $mcon  $L=0.17 $W=0.17 $A=0.0289 $VC=0 $SAVL=0 $SAVC=0 $SI_A=0.0289 $COVER_DIR=0 $LLX=0.000000 $LLY=0.000000 $URX=0.170000 $URY=0.170000 $lvl=6
RjH174 n0:4 n0:16 152.000000 $mcon  $L=0.17 $W=0.17 $A=0.0289 $VC=0 $SAVL=0 $SAVC=0 $SI_A=0.0289 $COVER_DIR=0 $LLX=0.000000 $LLY=0.000000 $URX=0.170000 $URY=0.170000 $lvl=6
RmwH175 Mmn1@1:d Mmn1:d 0.001000 $diff $W=1000000 $SI_W=1000000 $TYPE=1 $DIR=0
*
*|NET Y 3.73561e-15
*|P (Y X 0 2.7750 2.3350) // $llx=2.7750 $lly=2.3350 $urx=2.7750 $ury=2.3350 $lvl=1
*|I (Mmp2:d Mmp2 d X 0 2.7905 3.0150) // $llx=2.7905 $lly=3.0150 $urx=2.7905 $ury=3.0150 $lvl=4
*|I (Mmp2@1:d Mmp2@1 d X 0 3.0695 3.0150) // $llx=3.0695 $lly=3.0150 $urx=3.0695 $ury=3.0150 $lvl=4
*|I (Mmp1:d Mmp1 d X 0 1.4105 3.0150) // $llx=1.4105 $lly=3.0150 $urx=1.4105 $ury=3.0150 $lvl=4
*|I (Mmp1@1:d Mmp1@1 d X 0 1.6895 3.0150) // $llx=1.6895 $lly=3.0150 $urx=1.6895 $ury=3.0150 $lvl=4
*|I (Mmp0:d Mmp0 d X 0 0.5505 3.0150) // $llx=0.5505 $lly=3.0150 $urx=0.5505 $ury=3.0150 $lvl=4
*|I (Mmp0@1:d Mmp0@1 d X 0 0.8295 3.0150) // $llx=0.8295 $lly=3.0150 $urx=0.8295 $ury=3.0150 $lvl=4
*|I (Mmn2:d Mmn2 d X 0 2.7905 0.7750) // $llx=2.7905 $lly=0.7750 $urx=2.7905 $ury=0.7750 $lvl=4
*|I (Mmn2@1:d Mmn2@1 d X 0 3.0695 0.7750) // $llx=3.0695 $lly=0.7750 $urx=3.0695 $ury=0.7750 $lvl=4
*|S (Y:1 0.6900 3.7450) // $llx=0.6900 $lly=3.7450 $urx=0.6900 $ury=3.7450 $lvl=2
*|S (Y:2 0.6900 3.3850) // $llx=0.6900 $lly=3.3850 $urx=0.6900 $ury=3.3850 $lvl=2
*|S (Y:4 0.6900 3.0150) // $llx=0.6900 $lly=3.0150 $urx=0.6900 $ury=3.0150 $lvl=2
*|S (Y:5 0.6900 2.2850) // $llx=0.6900 $lly=2.2850 $urx=0.6900 $ury=2.2850 $lvl=2
*|S (Y:6 1.5500 3.7450) // $llx=1.5500 $lly=3.7450 $urx=1.5500 $ury=3.7450 $lvl=2
*|S (Y:7 1.5500 3.3850) // $llx=1.5500 $lly=3.3850 $urx=1.5500 $ury=3.3850 $lvl=2
*|S (Y:9 1.5500 3.0150) // $llx=1.5500 $lly=3.0150 $urx=1.5500 $ury=3.0150 $lvl=2
*|S (Y:10 1.5500 2.2850) // $llx=1.5500 $lly=2.2850 $urx=1.5500 $ury=2.2850 $lvl=2
*|S (Y:11 2.9300 3.7450) // $llx=2.9300 $lly=3.7450 $urx=2.9300 $ury=3.7450 $lvl=2
*|S (Y:13 2.9300 3.0150) // $llx=2.9300 $lly=3.0150 $urx=2.9300 $ury=3.0150 $lvl=2
*|S (Y:14 2.9300 2.9950) // $llx=2.9300 $lly=2.9950 $urx=2.9300 $ury=2.9950 $lvl=2
*|S (Y:15 2.9300 2.2850) // $llx=2.9300 $lly=2.2850 $urx=2.9300 $ury=2.2850 $lvl=2
*|S (Y:16 2.9300 1.1550) // $llx=2.9300 $lly=1.1550 $urx=2.9300 $ury=1.1550 $lvl=2
*|S (Y:17 2.9300 0.9750) // $llx=2.9300 $lly=0.9750 $urx=2.9300 $ury=0.9750 $lvl=2
*|S (Y:19 2.9300 0.7750) // $llx=2.9300 $lly=0.7750 $urx=2.9300 $ury=0.7750 $lvl=2
*|S (Y:20 2.9300 0.3950) // $llx=2.9300 $lly=0.3950 $urx=2.9300 $ury=0.3950 $lvl=2
*|S (Y:21 2.8375 2.4900) // $llx=2.8375 $lly=2.4900 $urx=2.8375 $ury=2.4900 $lvl=1
*|S (Y:22 2.9300 2.9950) // $llx=2.9300 $lly=2.9950 $urx=2.9300 $ury=2.9950 $lvl=1
*|S (Y:23 2.8375 3.3850) // $llx=2.8375 $lly=3.3850 $urx=2.8375 $ury=3.3850 $lvl=1
*|S (Y:24 1.5500 3.3850) // $llx=1.5500 $lly=3.3850 $urx=1.5500 $ury=3.3850 $lvl=1
*|S (Y:25 0.6900 3.3850) // $llx=0.6900 $lly=3.3850 $urx=0.6900 $ury=3.3850 $lvl=1
*|S (Y:26 2.8375 1.1200) // $llx=2.8375 $lly=1.1200 $urx=2.8375 $ury=1.1200 $lvl=1
*|S (Y:27 2.9300 0.9750) // $llx=2.9300 $lly=0.9750 $urx=2.9300 $ury=0.9750 $lvl=1
*|S (Y:28 0.5450 3.3850) // $llx=0.5450 $lly=3.3850 $urx=0.5450 $ury=3.3850 $lvl=1
CD1 Mmn2:d VSS! 7.85304e-19 $lvl=4
CD2 Mmp0:d VSS! 8.22682e-19 $lvl=4
CD3 Mmp1:d VSS! 5.2796e-19 $lvl=4
CD4 Mmp2:d VSS! 8.22106e-19 $lvl=4
CD5 Y:27 VSS! 4.88674e-18 $lvl=1
CD6 Y:24 VSS! 6.59632e-18 $lvl=1
CD7 Y:26 VSS! 7.44924e-18 $lvl=1
CD8 Y:28 VSS! 5.37012e-18 $lvl=1
CD9 Y:23 VSS! 8.28808e-18 $lvl=1
CD10 Y:16 VSS! 6.00486e-18 $lvl=2
CD11 Y:20 VSS! 8.21676e-19 $lvl=2
CD12 Y:11 VSS! 4.14515e-18 $lvl=2
CD13 Y:15 VSS! 2.40751e-18 $lvl=2
CD14 Y:6 VSS! 3.90455e-18 $lvl=2
CD15 Y:10 VSS! 3.23333e-18 $lvl=2
CD16 Y:4 VSS! 4.73445e-18 $lvl=2
CD17 Y:5 VSS! 2.94042e-18 $lvl=2
CD18 Y:2 VSS! 1.64274e-18 $lvl=2
CD19 Y:7 VSS! 1.61211e-18 $lvl=2
CD20 Y:17 VSS! 1.79564e-18 $lvl=2
CD21 Y:14 VSS! 3.7993e-18 $lvl=2
CD22 Y VSS! 8.78162e-18 $lvl=1
CD23 Y:26 n0:13 7.88801e-18 $lvl1=1 $lvl2=1
CD24 Y:26 n0:7 7.33116e-18 $lvl1=1 $lvl2=2
CD25 Y:20 n0:7 6.79866e-18 $lvl1=2 $lvl2=2
CD26 Y:26 n0:15 6.63988e-18 $lvl1=1 $lvl2=1
CD27 Y:20 n0:9 5.60055e-18 $lvl1=2 $lvl2=2
CD28 Y:26 n0:9 5.19172e-18 $lvl1=1 $lvl2=2
CD29 Y:17 n0:9 3.95208e-18 $lvl1=2 $lvl2=2
CD30 Y:16 n0:13 3.73143e-18 $lvl1=2 $lvl2=1
CD31 Y:16 n0:15 3.49186e-18 $lvl1=2 $lvl2=1
CD32 Y:27 n0:7 3.475e-18 $lvl1=1 $lvl2=2
CD33 Y:17 n0:13 2.95844e-18 $lvl1=2 $lvl2=1
CD34 Y:17 n0:7 2.68607e-18 $lvl1=2 $lvl2=2
CD35 Y:20 n0:15 2.39433e-18 $lvl1=2 $lvl2=1
CD36 Y:20 n0:13 2.15173e-18 $lvl1=2 $lvl2=1
CD37 Y:16 n0:12 2.01113e-18 $lvl1=2 $lvl2=2
CD38 Y:17 n0:15 2.00936e-18 $lvl1=2 $lvl2=1
CD39 Y:27 n0:9 1.82534e-18 $lvl1=1 $lvl2=2
CD40 Y n0:13 1.81297e-18 $lvl1=1 $lvl2=1
CD41 Y n0:9 1.67102e-18 $lvl1=1 $lvl2=2
CD42 Y:27 n0:8 1.43e-18 $lvl1=1 $lvl2=2
CD43 Y:16 n0:8 1.38933e-18 $lvl1=2 $lvl2=2
CD44 Y:17 n0:12 1.21167e-18 $lvl1=2 $lvl2=2
CD45 Mmn2:d n0:7 1.16041e-18 $lvl1=4 $lvl2=2
CD46 Y:20 n0:12 9.64057e-19 $lvl1=2 $lvl2=2
CD47 Y:27 n0:12 8.56043e-19 $lvl1=1 $lvl2=2
CD48 Y:20 n0:8 8.29294e-19 $lvl1=2 $lvl2=2
CD49 Y:26 n0:12 7.62448e-19 $lvl1=1 $lvl2=2
CD50 Y:26 n0:17 7.53823e-19 $lvl1=1 $lvl2=1
CD51 Y:17 n0:8 7.46567e-19 $lvl1=2 $lvl2=2
CD52 Y:27 n0:15 4.60883e-17 $lvl1=1 $lvl2=1
CD53 Y:27 n0:13 2.64289e-17 $lvl1=1 $lvl2=1
CD54 Y:16 n0:7 4.70828e-17 $lvl1=2 $lvl2=2
CD55 Y:16 n0:9 4.48901e-17 $lvl1=2 $lvl2=2
CD56 Y:26 n1:16 6.55397e-18 $lvl1=1 $lvl2=1
CD57 Y:27 n1:16 3.28356e-18 $lvl1=1 $lvl2=1
CD58 Y:26 n1:11 1.09222e-18 $lvl1=1 $lvl2=2
CD59 Y:26 n1:18 7.22771e-19 $lvl1=1 $lvl2=1
CD60 Y n1:16 6.75008e-19 $lvl1=1 $lvl2=1
CD61 Y:26 n1:12 5.53023e-19 $lvl1=1 $lvl2=2
CD62 Y:26 VSS!:10 3.28637e-18 $lvl1=1 $lvl2=1
CD63 Mmn2:d VSS!:4 2.7283e-18 $lvl1=4 $lvl2=2
CD64 Y:20 VSS!:6 2.36682e-18 $lvl1=2 $lvl2=2
CD65 Y:20 VSS!:10 1.99779e-18 $lvl1=2 $lvl2=1
CD66 Y:27 VSS!:10 1.92504e-18 $lvl1=1 $lvl2=1
CD67 Y VSS!:10 1.61082e-18 $lvl1=1 $lvl2=1
CD68 Y:26 VSS!:9 1.53519e-18 $lvl1=1 $lvl2=1
CD69 Y:16 VSS!:10 8.92717e-19 $lvl1=2 $lvl2=1
CD70 Y:23 VSS!:10 8.69768e-19 $lvl1=1 $lvl2=1
CD71 Y:16 VSS!:7 6.69534e-19 $lvl1=2 $lvl2=4
CD72 Y:20 VSS!:4 1.23823e-17 $lvl1=2 $lvl2=2
CD73 Y:16 VSS!:4 8.25598e-18 $lvl1=2 $lvl2=2
CD74 Y:24 VDD! 9.9686e-18 $lvl1=1 $lvl2=1
CD75 Y:23 VDD!:15 9.34593e-18 $lvl1=1 $lvl2=2
CD76 Y:14 VDD!:18 8.58451e-18 $lvl1=2 $lvl2=2
CD77 Y:15 VDD!:18 8.03591e-18 $lvl1=2 $lvl2=2
CD78 Y:15 VDD!:23 7.85385e-18 $lvl1=2 $lvl2=2
CD79 Y:10 VDD!:12 7.09045e-18 $lvl1=2 $lvl2=2
CD80 Y:23 VDD!:25 6.86717e-18 $lvl1=1 $lvl2=1
CD81 Y:10 VDD!:15 6.43403e-18 $lvl1=2 $lvl2=2
CD82 Y:5 VDD!:12 6.36763e-18 $lvl1=2 $lvl2=2
CD83 Y:28 VDD!:27 6.35387e-18 $lvl1=1 $lvl2=1
CD84 Y:5 VDD!:1 6.35104e-18 $lvl1=2 $lvl2=2
CD85 Y:4 VDD!:26 5.28064e-18 $lvl1=2 $lvl2=1
CD86 Y:11 VDD!:26 4.86206e-18 $lvl1=2 $lvl2=1
CD87 Y:6 VDD!:26 4.57297e-18 $lvl1=2 $lvl2=1
CD88 Y:27 VDD! 4.39598e-18 $lvl1=1 $lvl2=1
CD89 Y:24 VDD!:5 3.86424e-18 $lvl1=1 $lvl2=2
CD90 Y:24 VDD!:18 3.19375e-18 $lvl1=1 $lvl2=2
CD91 Y:23 VDD!:16 2.33551e-18 $lvl1=1 $lvl2=2
CD92 Y VDD!:26 2.3194e-18 $lvl1=1 $lvl2=1
CD93 Y:4 VDD!:6 2.27976e-18 $lvl1=2 $lvl2=2
CD94 Y:11 VDD!:6 2.18059e-18 $lvl1=2 $lvl2=2
CD95 Y:6 VDD!:6 2.18029e-18 $lvl1=2 $lvl2=2
CD96 Y:26 VDD!:23 2.02714e-18 $lvl1=1 $lvl2=2
CD97 Y:24 VDD!:6 2.02212e-18 $lvl1=1 $lvl2=2
CD98 Mmp1:d VDD!:5 2.00143e-18 $lvl1=4 $lvl2=2
CD99 Y:23 VDD!:20 1.98698e-18 $lvl1=1 $lvl2=2
CD100 Y:23 VDD!:6 1.97084e-18 $lvl1=1 $lvl2=2
CD101 Y:11 VDD! 1.80741e-18 $lvl1=2 $lvl2=1
CD102 Y:14 VDD!:26 1.73812e-18 $lvl1=2 $lvl2=1
CD103 Y:6 VDD!:7 1.57908e-18 $lvl1=2 $lvl2=4
CD104 Y:28 VDD!:4 1.53091e-18 $lvl1=1 $lvl2=2
CD105 Y:7 VDD!:15 1.52277e-18 $lvl1=2 $lvl2=2
CD106 Y:28 VDD!:5 1.48309e-18 $lvl1=1 $lvl2=2
CD107 Y:2 VDD!:1 1.43224e-18 $lvl1=2 $lvl2=2
CD108 Y:28 VDD!:6 1.39008e-18 $lvl1=1 $lvl2=2
CD109 Y:7 VDD!:12 1.3768e-18 $lvl1=2 $lvl2=2
CD110 Y:2 VDD!:12 1.3724e-18 $lvl1=2 $lvl2=2
CD111 Y:4 VDD!:7 1.29839e-18 $lvl1=2 $lvl2=4
CD112 Mmp0:d VDD!:5 1.28652e-18 $lvl1=4 $lvl2=2
CD113 Y:4 Mmp0:s 1.21952e-18 $lvl1=2 $lvl2=4
CD114 Y VDD!:25 1.17531e-18 $lvl1=1 $lvl2=1
CD115 Y:6 Mmp1@1:s 1.17456e-18 $lvl1=2 $lvl2=4
CD116 Mmp2:d VDD!:18 1.06742e-18 $lvl1=4 $lvl2=2
CD117 Mmp2:d VDD!:23 1.05184e-18 $lvl1=4 $lvl2=2
CD118 Y:4 Mmp1:s 1.0466e-18 $lvl1=2 $lvl2=4
CD119 Y:4 VDD!:27 1.0328e-18 $lvl1=2 $lvl2=1
CD120 Y VDD!:15 1.02582e-18 $lvl1=1 $lvl2=2
CD121 Y:23 VDD!:5 9.76611e-19 $lvl1=1 $lvl2=2
CD122 Mmp0:d VDD!:12 9.41579e-19 $lvl1=4 $lvl2=2
CD123 Y:6 Mmp1:s 9.15633e-19 $lvl1=2 $lvl2=4
CD124 Y:14 VDD! 9.1341e-19 $lvl1=2 $lvl2=1
CD125 Y:16 VDD! 8.39538e-19 $lvl1=2 $lvl2=1
CD126 Mmp2:d VDD!:20 7.65001e-19 $lvl1=4 $lvl2=2
CD127 Y:15 VDD! 7.60633e-19 $lvl1=2 $lvl2=1
CD128 Y:24 VDD!:27 7.55125e-19 $lvl1=1 $lvl2=1
CD129 Y:11 VDD!:7 6.94066e-19 $lvl1=2 $lvl2=4
CD130 Y:23 VDD!:24 6.66537e-19 $lvl1=1 $lvl2=2
CD131 Y:26 VDD!:26 6.63141e-19 $lvl1=1 $lvl2=1
CD132 Y:6 VDD!:18 6.51275e-19 $lvl1=2 $lvl2=2
CD133 Mmp2:d VDD!:16 6.32597e-19 $lvl1=4 $lvl2=2
CD134 Mmp1:d VDD!:12 5.76027e-19 $lvl1=4 $lvl2=2
CD135 Mmp1:d VDD!:15 5.42388e-19 $lvl1=4 $lvl2=2
CD136 Y:11 VDD!:5 5.40127e-19 $lvl1=2 $lvl2=2
CD137 Y:17 VDD! 5.20409e-19 $lvl1=2 $lvl2=1
CD138 Y:11 VDD!:25 5.06429e-19 $lvl1=2 $lvl2=1
CD139 Y VDD!:18 1.08132e-17 $lvl1=1 $lvl2=2
CD140 Y:23 VDD!:18 2.73838e-17 $lvl1=1 $lvl2=2
CD141 Y:6 VDD!:5 2.37706e-17 $lvl1=2 $lvl2=2
CD142 Y:4 VDD!:12 1.01818e-16 $lvl1=2 $lvl2=2
CD143 Y:14 VDD!:23 1.11297e-17 $lvl1=2 $lvl2=2
CD144 Y:6 VDD!:12 1.019e-16 $lvl1=2 $lvl2=2
CD145 Y:28 VDD!:12 1.17335e-17 $lvl1=1 $lvl2=2
CD146 Y VDD!:23 1.18945e-17 $lvl1=1 $lvl2=2
CD147 Y:24 VDD!:26 4.91715e-17 $lvl1=1 $lvl2=1
CD148 Y:4 VDD!:4 1.2921e-17 $lvl1=2 $lvl2=2
CD149 Y:24 VDD!:12 1.16987e-17 $lvl1=1 $lvl2=2
CD150 Y:11 VDD!:20 1.11607e-17 $lvl1=2 $lvl2=2
CD151 Y:6 VDD! 1.3512e-17 $lvl1=2 $lvl2=1
CD152 Y:28 VDD!:26 3.18104e-17 $lvl1=1 $lvl2=1
CD153 Y:4 VDD! 1.26744e-17 $lvl1=2 $lvl2=1
CD154 Y:23 VDD!:26 5.01381e-17 $lvl1=1 $lvl2=1
CD155 Y:11 VDD!:23 9.51844e-17 $lvl1=2 $lvl2=2
CD156 Y:6 VDD!:15 9.86223e-17 $lvl1=2 $lvl2=2
CD157 Y:28 VDD!:1 1.08189e-17 $lvl1=1 $lvl2=2
CD158 Y:26 VDD! 1.31473e-17 $lvl1=1 $lvl2=1
CD159 Y:4 VDD!:1 9.32713e-17 $lvl1=2 $lvl2=2
CD160 Y:28 VDD! 1.16481e-17 $lvl1=1 $lvl2=1
CD161 Y:23 VDD!:23 1.79529e-17 $lvl1=1 $lvl2=2
CD162 Y:23 VDD! 2.40896e-17 $lvl1=1 $lvl2=1
CD163 Y VDD! 1.85813e-17 $lvl1=1 $lvl2=1
CD164 Y:11 VDD!:18 9.58923e-17 $lvl1=2 $lvl2=2
CD165 Y:11 VDD!:16 1.10993e-17 $lvl1=2 $lvl2=2
CD166 Y:4 VDD!:5 1.30896e-17 $lvl1=2 $lvl2=2
CD167 Y:24 VDD!:15 2.01766e-17 $lvl1=1 $lvl2=2
ReD57 Y:21 Y:22 0.152108 $metal1  $L=0.505 $W=0.415000 $SI_W=0.415 $TYPE=10 $DIR=1 $LLX=2.630000 $LLY=2.490000 $URX=3.045000 $URY=2.995000 $lvl=1
ReD58 Y:22 Y:23 0.117545 $metal1  $L=0.39025 $W=0.415000 $SI_W=0.415 $TYPE=10 $DIR=1 $LLX=2.630000 $LLY=2.995000 $URX=3.045000 $URY=3.385000 $lvl=1
ReD59 Y:23 Y:24 0.699864 $metal1  $L=1.28775 $W=0.230000 $SI_W=0.23 $TYPE=10 $DIR=0 $LLX=1.549500 $LLY=3.270000 $URX=2.837500 $URY=3.500000 $lvl=1
ReD60 Y:24 Y:25 0.467391 $metal1  $L=0.86 $W=0.230000 $SI_W=0.23 $TYPE=10 $DIR=0 $LLX=0.690000 $LLY=3.270000 $URX=1.550000 $URY=3.500000 $lvl=1
ReD61 Y:21 Y 0.074519 $metal1  $L=0.155 $W=0.260000 $SI_W=0.26 $TYPE=10 $DIR=1 $LLX=2.630000 $LLY=2.335000 $URX=2.890000 $URY=2.490000 $lvl=1
ReD62 Y Y:26 0.584135 $metal1  $L=1.215 $W=0.260000 $SI_W=0.26 $TYPE=10 $DIR=1 $LLX=2.630000 $LLY=1.120000 $URX=2.890000 $URY=2.335000 $lvl=1
ReD63 Y:26 Y:27 0.043675 $metal1  $L=0.145 $W=0.415000 $SI_W=0.415 $TYPE=10 $DIR=1 $LLX=2.630000 $LLY=0.975000 $URX=3.045000 $URY=1.120000 $lvl=1
ReD64 Y:25 Y:28 0.078804 $metal1  $L=0.145 $W=0.230000 $SI_W=0.23 $TYPE=10 $DIR=0 $LLX=0.545000 $LLY=3.270000 $URX=0.690000 $URY=3.500000 $lvl=1
RfD65 Y:1 Y:2 27.105881 $li  $L=0.36 $W=0.170000 $SI_W=0.17 $TYPE=10 $DIR=1 $LLX=0.605000 $LLY=3.385000 $URX=0.775000 $URY=3.745000 $lvl=2
RfD66 Y:2 Y:4 27.858822 $li  $L=0.37 $W=0.170000 $SI_W=0.17 $TYPE=10 $DIR=1 $LLX=0.605000 $LLY=3.015000 $URX=0.775000 $URY=3.385000 $lvl=2
RfD67 Y:4 Y:5 54.964703 $li  $L=0.73 $W=0.170000 $SI_W=0.17 $TYPE=10 $DIR=1 $LLX=0.605000 $LLY=2.285000 $URX=0.775000 $URY=3.015000 $lvl=2
RfD68 Y:6 Y:7 27.105881 $li  $L=0.36 $W=0.170000 $SI_W=0.17 $TYPE=10 $DIR=1 $LLX=1.465000 $LLY=3.385000 $URX=1.635000 $URY=3.745000 $lvl=2
RfD69 Y:7 Y:9 27.858822 $li  $L=0.37 $W=0.170000 $SI_W=0.17 $TYPE=10 $DIR=1 $LLX=1.465000 $LLY=3.015000 $URX=1.635000 $URY=3.385000 $lvl=2
RfD70 Y:9 Y:10 54.964703 $li  $L=0.73 $W=0.170000 $SI_W=0.17 $TYPE=10 $DIR=1 $LLX=1.465000 $LLY=2.285000 $URX=1.635000 $URY=3.015000 $lvl=2
RfD71 Y:11 Y:13 54.964703 $li  $L=0.73 $W=0.170000 $SI_W=0.17 $TYPE=10 $DIR=1 $LLX=2.845000 $LLY=3.015000 $URX=3.015000 $URY=3.745000 $lvl=2
RfD72 Y:13 Y:14 0.287640 $li  $L=0.02 $W=0.170000 $SI_W=0.89 $TYPE=10 $DIR=1 $LLX=2.845000 $LLY=2.995000 $URX=3.015000 $URY=3.015000 $lvl=2
RfD73 Y:14 Y:15 53.458820 $li  $L=0.71 $W=0.170000 $SI_W=0.17 $TYPE=10 $DIR=1 $LLX=2.845000 $LLY=2.285000 $URX=3.015000 $URY=2.995000 $lvl=2
RfD74 Y:16 Y:17 13.552942 $li  $L=0.18 $W=0.170000 $SI_W=0.17 $TYPE=10 $DIR=1 $LLX=2.845000 $LLY=0.975000 $URX=3.015000 $URY=1.155000 $lvl=2
RfD75 Y:17 Y:19 15.058825 $li  $L=0.2 $W=0.170000 $SI_W=0.17 $TYPE=10 $DIR=1 $LLX=2.845000 $LLY=0.775000 $URX=3.015000 $URY=0.975000 $lvl=2
RfD76 Y:19 Y:20 28.611765 $li  $L=0.38 $W=0.170000 $SI_W=0.17 $TYPE=10 $DIR=1 $LLX=2.845000 $LLY=0.395000 $URX=3.015000 $URY=0.775000 $lvl=2
RhD77 Mmn2:d Y:19 7.500000 $licon_diff  $A=0.0578 $VC=0 $SAVL=0 $SAVC=0 $SI_A=0.0578 $COVER_DIR=0 $LLX=0.000000 $LLY=0.000000 $URX=-0.057800 $URY=-2.000000 $lvl=5
Rh_2_D78 Mmp0:d Y:4 3.750000 $licon_diff  $A=0.1156 $VC=0 $SAVL=0 $SAVC=0 $SI_A=0.1156 $COVER_DIR=0 $LLX=0.000000 $LLY=0.000000 $URX=-0.115600 $URY=-4.000000 $lvl=5
Rh_2_D79 Mmp1:d Y:9 3.750000 $licon_diff  $A=0.1156 $VC=0 $SAVL=0 $SAVC=0 $SI_A=0.1156 $COVER_DIR=0 $LLX=0.000000 $LLY=0.000000 $URX=-0.115600 $URY=-4.000000 $lvl=5
Rh_2_D80 Mmp2:d Y:13 3.750000 $licon_diff  $A=0.1156 $VC=0 $SAVL=0 $SAVC=0 $SI_A=0.1156 $COVER_DIR=0 $LLX=0.000000 $LLY=0.000000 $URX=-0.115600 $URY=-4.000000 $lvl=5
RjD81 Y:14 Y:22 50.666668 $mcon  $A=0.0867 $VC=0 $SAVL=0 $SAVC=0 $SI_A=0.0867 $COVER_DIR=0 $LLX=0.000000 $LLY=0.000000 $URX=-0.086700 $URY=-3.000000 $lvl=6
RjD82 Y:7 Y:24 152.000000 $mcon  $L=0.17 $W=0.17 $A=0.0289 $VC=0 $SAVL=0 $SAVC=0 $SI_A=0.0289 $COVER_DIR=0 $LLX=0.000000 $LLY=0.000000 $URX=0.170000 $URY=0.170000 $lvl=6
RjD83 Y:2 Y:25 152.000000 $mcon  $L=0.17 $W=0.17 $A=0.0289 $VC=0 $SAVL=0 $SAVC=0 $SI_A=0.0289 $COVER_DIR=0 $LLX=0.000000 $LLY=0.000000 $URX=0.170000 $URY=0.170000 $lvl=6
RjD84 Y:17 Y:27 152.000000 $mcon  $L=0.17 $W=0.17 $A=0.0289 $VC=0 $SAVL=0 $SAVC=0 $SI_A=0.0289 $COVER_DIR=0 $LLX=0.000000 $LLY=0.000000 $URX=0.170000 $URY=0.170000 $lvl=6
RmwD85 Mmp2@1:d Mmp2:d 0.001000 $diff $W=1000000 $SI_W=1000000 $TYPE=1 $DIR=0
RmwD86 Mmp1@1:d Mmp1:d 0.001000 $diff $W=1000000 $SI_W=1000000 $TYPE=1 $DIR=0
RmwD87 Mmp0@1:d Mmp0:d 0.001000 $diff $W=1000000 $SI_W=1000000 $TYPE=1 $DIR=0
RmwD88 Mmn2@1:d Mmn2:d 0.001000 $diff $W=1000000 $SI_W=1000000 $TYPE=1 $DIR=0
*
*|NET VSS! 1.86269e-15
*|P (VSS! X 0 2.4150 0.0050) // $llx=2.4150 $lly=0.0050 $urx=2.4150 $ury=0.0050 $lvl=1
*|I (Mmn2:b Mmn2 b X 0 2.7150 0.7750) // $llx=2.7150 $lly=0.7750 $urx=2.7150 $ury=0.7750 $lvl=8
*|I (Mmn2@1:b Mmn2@1 b X 0 3.1450 0.7750) // $llx=3.1450 $lly=0.7750 $urx=3.1450 $ury=0.7750 $lvl=8
*|I (Mmn1:b Mmn1 b X 0 1.3350 0.7750) // $llx=1.3350 $lly=0.7750 $urx=1.3350 $ury=0.7750 $lvl=8
*|I (Mmn1@1:b Mmn1@1 b X 0 1.7650 0.7750) // $llx=1.7650 $lly=0.7750 $urx=1.7650 $ury=0.7750 $lvl=8
*|I (Mmn0:s Mmn0 s X 0 0.5505 0.7750) // $llx=0.5505 $lly=0.7750 $urx=0.5505 $ury=0.7750 $lvl=4
*|I (Mmn0:b Mmn0 b X 0 0.4750 0.7750) // $llx=0.4750 $lly=0.7750 $urx=0.4750 $ury=0.7750 $lvl=8
*|I (Mmn0@1:s Mmn0@1 s X 0 0.8295 0.7750) // $llx=0.8295 $lly=0.7750 $urx=0.8295 $ury=0.7750 $lvl=4
*|I (Mmn0@1:b Mmn0@1 b X 0 0.9050 0.7750) // $llx=0.9050 $lly=0.7750 $urx=0.9050 $ury=0.7750 $lvl=8
*|S (VSS!:1 0.6900 1.1550) // $llx=0.6900 $lly=1.1550 $urx=0.6900 $ury=1.1550 $lvl=2
*|S (VSS!:3 0.6900 0.7750) // $llx=0.6900 $lly=0.7750 $urx=0.6900 $ury=0.7750 $lvl=2
*|S (VSS!:4 0.6900 0.0000) // $llx=0.6900 $lly=0.0000 $urx=0.6900 $ury=0.0000 $lvl=2
*|S (VSS!:5 0.0000 0.0000) // $llx=0.0000 $lly=0.0000 $urx=0.0000 $ury=0.0000 $lvl=2
*|S (VSS!:6 1.8400 0.0000) // $llx=1.8400 $lly=0.0000 $urx=1.8400 $ury=0.0000 $lvl=2
*|S (VSS!:7 1.8400 0.0000) // $llx=1.8400 $lly=0.0000 $urx=1.8400 $ury=0.0000 $lvl=4
*|S (VSS!:9 3.6800 0.0000) // $llx=3.6800 $lly=0.0000 $urx=3.6800 $ury=0.0000 $lvl=1
*|S (VSS!:10 1.8400 0.0000) // $llx=1.8400 $lly=0.0000 $urx=1.8400 $ury=0.0000 $lvl=1
*|S (VSS!:11 0.0000 0.0000) // $llx=0.0000 $lly=0.0000 $urx=0.0000 $ury=0.0000 $lvl=1
ReF122 VSS!:9 VSS! 0.395312 $metal1  $L=1.265 $W=0.400000 $SI_W=0.4 $TYPE=10 $DIR=0 $LLX=2.415000 $LLY=-0.199500 $URX=3.680000 $URY=0.200000 $lvl=1
ReF123 VSS! VSS!:10 0.179688 $metal1  $L=0.575 $W=0.400000 $SI_W=0.4 $TYPE=10 $DIR=0 $LLX=1.840000 $LLY=-0.199500 $URX=2.415000 $URY=0.200000 $lvl=1
ReF124 VSS!:10 VSS!:11 0.575000 $metal1  $L=1.84 $W=0.400000 $SI_W=0.4 $TYPE=10 $DIR=0 $LLX=0.000000 $LLY=-0.199500 $URX=1.840000 $URY=0.200000 $lvl=1
RfF125 VSS!:1 VSS!:3 28.611765 $li  $L=0.38 $W=0.170000 $SI_W=0.17 $TYPE=10 $DIR=1 $LLX=0.605000 $LLY=0.775000 $URX=0.775000 $URY=1.155000 $lvl=2
RfF126 VSS!:3 VSS!:4 55.328377 $li  $L=0.77475 $W=0.170000 $SI_W=0.17 $TYPE=10 $DIR=1 $LLX=0.605000 $LLY=0.000000 $URX=0.775000 $URY=0.775000 $lvl=2
RfF127 VSS!:4 VSS!:5 35.340801 $li  $L=0.69025 $W=0.250000 $SI_W=0.25 $TYPE=10 $DIR=0 $LLX=0.000000 $LLY=-0.124500 $URX=0.690000 $URY=0.125000 $lvl=2
RfF128 VSS!:4 VSS!:6 58.867199 $li  $L=1.14975 $W=0.250000 $SI_W=0.25 $TYPE=10 $DIR=0 $LLX=0.690000 $LLY=-0.124500 $URX=1.840000 $URY=0.125000 $lvl=2
RhF129 Mmn0:s VSS!:3 7.500000 $licon_diff  $A=0.0578 $VC=0 $SAVL=0 $SAVC=0 $SI_A=0.0578 $COVER_DIR=0 $LLX=0.000000 $LLY=0.000000 $URX=-0.057800 $URY=-2.000000 $lvl=5
Rh_3_F130 VSS!:7 VSS!:6 2.142857 $licon_diff  $A=0.2023 $VC=0 $SAVL=0 $SAVC=0 $SI_A=0.2023 $COVER_DIR=0 $LLX=0.000000 $LLY=0.000000 $URX=-0.202300 $URY=-7.000000 $lvl=5
RjF131 VSS!:6 VSS!:10 21.714285 $mcon  $A=0.2023 $VC=0 $SAVL=0 $SAVC=0 $SI_A=0.2023 $COVER_DIR=0 $LLX=0.000000 $LLY=0.000000 $URX=-0.202300 $URY=-7.000000 $lvl=6
RmwF132 Mmn2:b VSS! 0.001000 $FOX $W=1000000 $SI_W=1000000 $TYPE=1 $DIR=0
RmwF133 Mmn2@1:b VSS! 0.001000 $FOX $W=1000000 $SI_W=1000000 $TYPE=1 $DIR=0
RmwF134 Mmn1:b VSS! 0.001000 $FOX $W=1000000 $SI_W=1000000 $TYPE=1 $DIR=0
RmwF135 Mmn1@1:b VSS! 0.001000 $FOX $W=1000000 $SI_W=1000000 $TYPE=1 $DIR=0
RmwF136 Mmn0:b VSS! 0.001000 $FOX $W=1000000 $SI_W=1000000 $TYPE=1 $DIR=0
RmwF137 Mmn0@1:s Mmn0:s 0.001000 $diff $W=1000000 $SI_W=1000000 $TYPE=1 $DIR=0
RmwF138 Mmn0@1:b VSS! 0.001000 $FOX $W=1000000 $SI_W=1000000 $TYPE=1 $DIR=0
*
*|NET A 1.98598e-15
*|P (A X 0 0.4750 2.2450) // $llx=0.4750 $lly=2.2450 $urx=0.4750 $ury=2.2450 $lvl=1
*|I (Mmp0:g Mmp0 g X 0 0.4750 3.0150) // $llx=0.4750 $lly=3.0150 $urx=0.4750 $ury=3.0150 $lvl=3
*|I (Mmp0@1:g Mmp0@1 g X 0 0.9050 3.0150) // $llx=0.9050 $lly=3.0150 $urx=0.9050 $ury=3.0150 $lvl=3
*|I (Mmn0:g Mmn0 g X 0 0.4750 0.7750) // $llx=0.4750 $lly=0.7750 $urx=0.4750 $ury=0.7750 $lvl=3
*|I (Mmn0@1:g Mmn0@1 g X 0 0.9050 0.7750) // $llx=0.9050 $lly=0.7750 $urx=0.9050 $ury=0.7750 $lvl=3
*|S (A:15 0.9050 3.8950) // $llx=0.9050 $lly=3.8950 $urx=0.9050 $ury=3.8950 $lvl=3
*|S (A:16 0.9050 1.6650) // $llx=0.9050 $lly=1.6650 $urx=0.9050 $ury=1.6650 $lvl=3
*|S (A:17 0.6900 1.6650) // $llx=0.6900 $lly=1.6650 $urx=0.6900 $ury=1.6650 $lvl=3
*|S (A:18 0.4750 1.6650) // $llx=0.4750 $lly=1.6650 $urx=0.4750 $ury=1.6650 $lvl=3
*|S (A:19 0.9050 0.2450) // $llx=0.9050 $lly=0.2450 $urx=0.9050 $ury=0.2450 $lvl=3
*|S (A:20 0.4750 3.8950) // $llx=0.4750 $lly=3.8950 $urx=0.4750 $ury=3.8950 $lvl=3
*|S (A:21 0.4750 0.2450) // $llx=0.4750 $lly=0.2450 $urx=0.4750 $ury=0.2450 $lvl=3
*|S (A:22 0.2950 1.9150) // $llx=0.2950 $lly=1.9150 $urx=0.2950 $ury=1.9150 $lvl=2
*|S (A:23 0.4600 1.9150) // $llx=0.4600 $lly=1.9150 $urx=0.4600 $ury=1.9150 $lvl=2
*|S (A:24 0.6900 1.9150) // $llx=0.6900 $lly=1.9150 $urx=0.6900 $ury=1.9150 $lvl=2
*|S (A:25 0.6900 1.6650) // $llx=0.6900 $lly=1.6650 $urx=0.6900 $ury=1.6650 $lvl=2
*|S (A:26 0.4600 2.8900) // $llx=0.4600 $lly=2.8900 $urx=0.4600 $ury=2.8900 $lvl=1
*|S (A:27 0.4600 1.9150) // $llx=0.4600 $lly=1.9150 $urx=0.4600 $ury=1.9150 $lvl=1
*|S (A:28 0.4600 1.6500) // $llx=0.4600 $lly=1.6500 $urx=0.4600 $ury=1.6500 $lvl=1
CA1 Mmn0@1:g VSS! 1.93155e-18 $lvl=3
CA2 Mmn0:g VSS! 1.77671e-18 $lvl=3
CA3 A:15 VSS! 2.03468e-18 $lvl=3
CA4 A:20 VSS! 3.14126e-18 $lvl=3
CA5 A:27 VSS! 8.60172e-18 $lvl=1
CA6 A:28 VSS! 7.69875e-18 $lvl=1
CA7 A:25 VSS! 5.24278e-18 $lvl=2
CA8 A:22 VSS! 4.2813e-18 $lvl=2
CA9 A:23 VSS! 4.02824e-18 $lvl=2
CA10 A:17 VSS! 2.88427e-17 $lvl=3
CA11 A VSS! 1.01817e-17 $lvl=1
CA12 A:17 n1 5.97401e-18 $lvl1=3 $lvl2=2
CA13 A:28 n1:18 4.72473e-18 $lvl1=1 $lvl2=1
CA14 A:25 n1:9 4.21354e-18 $lvl1=2 $lvl2=2
CA15 A:17 n1:9 4.03531e-18 $lvl1=3 $lvl2=2
CA16 A:25 n1 3.7036e-18 $lvl1=2 $lvl2=2
CA17 A:27 n1:20 3.69701e-18 $lvl1=1 $lvl2=1
CA18 A:25 n1:18 3.69227e-18 $lvl1=2 $lvl2=1
CA19 A:25 n1:20 3.6719e-18 $lvl1=2 $lvl2=1
CA20 A:28 n1 1.96708e-18 $lvl1=1 $lvl2=2
CA21 A:27 n1:18 1.94271e-18 $lvl1=1 $lvl2=1
CA22 A:22 n1 1.8381e-18 $lvl1=2 $lvl2=2
CA23 A n1:20 1.78808e-18 $lvl1=1 $lvl2=1
CA24 A n1:18 1.3154e-18 $lvl1=1 $lvl2=1
CA25 A:22 n1:20 1.03826e-18 $lvl1=2 $lvl2=1
CA26 A:17 n1:20 9.74162e-19 $lvl1=3 $lvl2=1
CA27 A:27 n1 9.38816e-19 $lvl1=1 $lvl2=2
CA28 A:23 n1 9.11603e-19 $lvl1=2 $lvl2=2
CA29 A:25 n1:7 8.42716e-19 $lvl1=2 $lvl2=2
CA30 A:17 Mmn0:d 8.3083e-19 $lvl1=3 $lvl2=4
CA31 A n1 7.41176e-19 $lvl1=1 $lvl2=2
CA32 A:23 n1:20 7.29482e-19 $lvl1=2 $lvl2=1
CA33 Mmn0:g n1:5 5.73533e-19 $lvl1=3 $lvl2=2
CA34 Mmn0@1:g n1:10 5.61301e-19 $lvl1=3 $lvl2=2
CA35 Mmn0:g n1:9 5.04572e-19 $lvl1=3 $lvl2=2
CA36 A:17 Mmn1:s 4.93309e-19 $lvl1=3 $lvl2=4
CA37 A:28 n1:20 9.65562e-18 $lvl1=1 $lvl2=1
CA38 Mmn0@1:g n1:9 1.31704e-16 $lvl1=3 $lvl2=2
CA39 Mmn0:g n1 1.31363e-16 $lvl1=3 $lvl2=2
CA40 A:17 Mmn0:s 1.50528e-18 $lvl1=3 $lvl2=4
CA41 A VSS!:10 1.1738e-18 $lvl1=1 $lvl2=1
CA42 A:28 VSS!:3 1.06287e-18 $lvl1=1 $lvl2=2
CA43 Mmn0:g VSS!:3 1.26035e-16 $lvl1=3 $lvl2=2
CA44 Mmn0:g VSS!:4 7.63576e-18 $lvl1=3 $lvl2=2
CA45 A:17 VSS!:3 9.76092e-18 $lvl1=3 $lvl2=2
CA46 Mmn0@1:g VSS!:3 1.27785e-16 $lvl1=3 $lvl2=2
CA47 Mmn0@1:g VSS!:4 8.5183e-18 $lvl1=3 $lvl2=2
CA48 A:25 VSS!:3 1.41545e-17 $lvl1=2 $lvl2=2