*
*|DSPF 1.5
*
*|DATE "Wed Jan  8 20:38:51 2025"
*|VENDOR "Cadence Design Systems"
*|PROGRAM "Cadence Quantus Extraction"
*|VERSION "22.1.0-p089 Linux 64 bit - (Thu Jan 19 11:47:08 PST 2023)"
*|DESIGN NOR2X4_HS
*|DIVIDER /
*|DELIMITER :
*|DeviceFingerDelim "@"
*|BUSBIT []
*|GLOBAL_TEMPERATURE 25
*|OPERATING_TEMPERATURE 25

** *VIA_COVERAGE_CODES
** *index FF FS FP FU SF SS SP SU PF PS PP PU UF US UP UU X_by_Y
** * "FF" stands for Full landing and Full coverage
** *0 0 0 0 0 0 0 0 0 0 0 0 0 0 0 0 0
** *1 0 0 0 0 0 0 0 0 0 0 0 0 0 0 0 1 1x1
** *2 0 0 0 0 0 0 0 0 0 0 0 0 0 0 1 0 1x1
** *3 0 0 0 0 0 0 0 0 0 0 0 0 0 1 0 0 1x1
** *4 0 0 0 0 0 0 0 0 0 0 0 0 1 0 0 0 1x1
** *5 0 0 0 0 0 0 0 0 0 0 0 1 0 0 0 0 1x1
** *6 0 0 0 0 0 0 0 0 0 0 1 0 0 0 0 0 1x1
** *7 0 0 0 0 0 0 0 0 0 1 0 0 0 0 0 0 1x1
** *8 0 0 0 0 0 0 0 0 1 0 0 0 0 0 0 0 1x1
** *9 0 0 0 0 0 0 0 1 0 0 0 0 0 0 0 0 1x1
** *10 0 0 0 0 0 0 1 0 0 0 0 0 0 0 0 0 1x1
** *11 0 0 0 0 0 1 0 0 0 0 0 0 0 0 0 0 1x1
** *12 0 0 0 0 1 0 0 0 0 0 0 0 0 0 0 0 1x1
** *13 0 0 0 1 0 0 0 0 0 0 0 0 0 0 0 0 1x1
** *14 0 0 1 0 0 0 0 0 0 0 0 0 0 0 0 0 1x1
** *15 0 1 0 0 0 0 0 0 0 0 0 0 0 0 0 0 1x1
** *16 1 0 0 0 0 0 0 0 0 0 0 0 0 0 0 0 1x1

** *RESISTOR_TYPES
** *1 SHORTING_ELEMENT
** *2 PRES_NG
** *3 PRES_PG
** *4 PRES_NF
** *5 PRES_PF
** *6 TCN_NDIFF
** *7 TCN_PDIFF
** *8 TCN_NFIELD
** *9 TCN_PFIELD
** *10 QUALITY_EXTRACTED
** *11 GCNLAND
** *12 TCNLAND
** *13 DUMMY
** *14 RSD
** *15 BRIDGE

** *RESISTOR_CURRENT_DIRECTION
** *0 HORIZONTAL
** *1 VERTICAL
** *2 45 DEGREE

** QRC_TECH_DIR /vols/wfo_devel/projects/reference_SKY130/tech/sky130_release_0.0.4/quantus/extraction/typical 
** HIERARCHICAL_SPLIT_PINS_DELIMITER '%'
** caps2d version: 10
*
.SUBCKT  NOR2X4_HS A B Y
*
*Net Section
*
*|GROUND_NET VSS!
*
*LAYER_MAP
*0 none
*1 metal1
*2 li
*3 poly
*4 diff
*5 licon_diff
*6 mcon
*7 licon
*8 FOX

*|NET B 3.70496e-15
*|P (B X 0 3.6950 1.9550) // $llx=3.6950 $lly=1.9550 $urx=3.6950 $ury=1.9550 $lvl=1
*|I (Mmp1:g Mmp1 g X 0 2.1950 3.0150) // $llx=2.1950 $lly=3.0150 $urx=2.1950 $ury=3.0150 $lvl=3
*|I (Mmp1@1:g Mmp1@1 g X 0 2.6250 3.0150) // $llx=2.6250 $lly=3.0150 $urx=2.6250 $ury=3.0150 $lvl=3
*|I (Mmp1@2:g Mmp1@2 g X 0 3.0550 3.0150) // $llx=3.0550 $lly=3.0150 $urx=3.0550 $ury=3.0150 $lvl=3
*|I (Mmp1@3:g Mmp1@3 g X 0 3.4850 3.0150) // $llx=3.4850 $lly=3.0150 $urx=3.4850 $ury=3.0150 $lvl=3
*|I (Mmn1:g Mmn1 g X 0 2.1950 0.7750) // $llx=2.1950 $lly=0.7750 $urx=2.1950 $ury=0.7750 $lvl=3
*|I (Mmn1@1:g Mmn1@1 g X 0 2.6250 0.7750) // $llx=2.6250 $lly=0.7750 $urx=2.6250 $ury=0.7750 $lvl=3
*|I (Mmn1@2:g Mmn1@2 g X 0 3.0550 0.7750) // $llx=3.0550 $lly=0.7750 $urx=3.0550 $ury=0.7750 $lvl=3
*|I (Mmn1@3:g Mmn1@3 g X 0 3.4850 0.7750) // $llx=3.4850 $lly=0.7750 $urx=3.4850 $ury=0.7750 $lvl=3
*|S (B:29 3.4850 3.8950) // $llx=3.4850 $lly=3.8950 $urx=3.4850 $ury=3.8950 $lvl=3
*|S (B:30 3.4850 1.8200) // $llx=3.4850 $lly=1.8200 $urx=3.4850 $ury=1.8200 $lvl=3
*|S (B:31 3.0550 1.8200) // $llx=3.0550 $lly=1.8200 $urx=3.0550 $ury=1.8200 $lvl=3
*|S (B:32 2.8400 1.8200) // $llx=2.8400 $lly=1.8200 $urx=2.8400 $ury=1.8200 $lvl=3
*|S (B:33 2.6250 1.8200) // $llx=2.6250 $lly=1.8200 $urx=2.6250 $ury=1.8200 $lvl=3
*|S (B:34 2.1950 1.8200) // $llx=2.1950 $lly=1.8200 $urx=2.1950 $ury=1.8200 $lvl=3
*|S (B:35 2.0700 1.8200) // $llx=2.0700 $lly=1.8200 $urx=2.0700 $ury=1.8200 $lvl=3
*|S (B:36 3.4850 0.2450) // $llx=3.4850 $lly=0.2450 $urx=3.4850 $ury=0.2450 $lvl=3
*|S (B:37 3.6095 1.8200) // $llx=3.6095 $lly=1.8200 $urx=3.6095 $ury=1.8200 $lvl=3
*|S (B:38 3.0550 0.2450) // $llx=3.0550 $lly=0.2450 $urx=3.0550 $ury=0.2450 $lvl=3
*|S (B:39 3.0550 3.8950) // $llx=3.0550 $lly=3.8950 $urx=3.0550 $ury=3.8950 $lvl=3
*|S (B:40 2.6250 0.2450) // $llx=2.6250 $lly=0.2450 $urx=2.6250 $ury=0.2450 $lvl=3
*|S (B:41 2.6250 3.8950) // $llx=2.6250 $lly=3.8950 $urx=2.6250 $ury=3.8950 $lvl=3
*|S (B:42 2.1950 0.2450) // $llx=2.1950 $lly=0.2450 $urx=2.1950 $ury=0.2450 $lvl=3
*|S (B:43 2.1950 3.8950) // $llx=2.1950 $lly=3.8950 $urx=2.1950 $ury=3.8950 $lvl=3
*|S (B:44 3.8450 1.8200) // $llx=3.8450 $lly=1.8200 $urx=3.8450 $ury=1.8200 $lvl=2
*|S (B:45 3.6800 1.8200) // $llx=3.6800 $lly=1.8200 $urx=3.6800 $ury=1.8200 $lvl=2
*|S (B:46 2.8400 1.8200) // $llx=2.8400 $lly=1.8200 $urx=2.8400 $ury=1.8200 $lvl=2
*|S (B:47 2.0500 1.8200) // $llx=2.0500 $lly=1.8200 $urx=2.0500 $ury=1.8200 $lvl=2
*|S (B:48 3.6800 2.6000) // $llx=3.6800 $lly=2.6000 $urx=3.6800 $ury=2.6000 $lvl=1
*|S (B:49 3.6800 1.8200) // $llx=3.6800 $lly=1.8200 $urx=3.6800 $ury=1.8200 $lvl=1
*|S (B:50 3.6800 1.3600) // $llx=3.6800 $lly=1.3600 $urx=3.6800 $ury=1.3600 $lvl=1
CB1 Mmn1@2:g VSS! 1.86389e-18 $lvl=3
CB2 B:48 VSS! 1.27179e-17 $lvl=1
CB3 B:50 VSS! 9.64656e-18 $lvl=1
CB4 B:29 VSS! 2.50046e-18 $lvl=3
CB5 B:39 VSS! 2.6034e-18 $lvl=3
CB6 B:41 VSS! 2.72763e-18 $lvl=3
CB7 B:43 VSS! 4.7494e-18 $lvl=3
CB8 B:42 VSS! 5.70785e-18 $lvl=3
CB9 B:40 VSS! 2.30272e-18 $lvl=3
CB10 B:36 VSS! 2.18469e-18 $lvl=3
CB11 B:46 VSS! 1.27208e-17 $lvl=2
CB12 B:44 VSS! 6.52668e-18 $lvl=2
CB13 B:47 VSS! 9.41485e-18 $lvl=2
CB14 B:45 VSS! 3.5369e-18 $lvl=2
CB15 B:32 VSS! 5.511e-17 $lvl=3
CB16 B:48 net41:25 7.68e-18 $lvl1=1 $lvl2=2
CB17 B:46 net41:20 5.60409e-18 $lvl1=2 $lvl2=2
CB18 B:32 net41:21 4.00747e-18 $lvl1=3 $lvl2=2
CB19 B:32 net41:19 3.98186e-18 $lvl1=3 $lvl2=2
CB20 B:32 net41:20 3.86057e-18 $lvl1=3 $lvl2=2
CB21 B:44 net41:21 3.13268e-18 $lvl1=2 $lvl2=2
CB22 B:45 net41:25 3.11554e-18 $lvl1=2 $lvl2=2
CB23 B:44 net41:25 2.97828e-18 $lvl1=2 $lvl2=2
CB24 B:32 net41:11 2.22803e-18 $lvl1=3 $lvl2=2
CB25 B:32 net41:25 2.16944e-18 $lvl1=3 $lvl2=2
CB26 B:32 net41:15 1.99184e-18 $lvl1=3 $lvl2=2
CB27 B:46 net41:19 1.98985e-18 $lvl1=2 $lvl2=2
CB28 B:47 net41:15 1.9328e-18 $lvl1=2 $lvl2=2
CB29 B:46 net41:25 1.66761e-18 $lvl1=2 $lvl2=2
CB30 B:48 net41:28 1.36437e-18 $lvl1=1 $lvl2=1
CB31 B:32 Mmp1@1:s 1.25348e-18 $lvl1=3 $lvl2=4
CB32 B:45 net41:21 1.20872e-18 $lvl1=2 $lvl2=2
CB33 B:46 net41:15 1.11851e-18 $lvl1=2 $lvl2=2
CB34 B:48 net41:22 1.08972e-18 $lvl1=1 $lvl2=2
CB35 B:32 Mmp1@3:s 1.05044e-18 $lvl1=3 $lvl2=4
CB36 B:41 net41:19 2.53024e-16 $lvl1=3 $lvl2=2
CB37 B:43 net41:11 2.52194e-16 $lvl1=3 $lvl2=2
CB38 B:39 net41:19 2.5257e-16 $lvl1=3 $lvl2=2
CB39 B:29 net41:21 2.51321e-16 $lvl1=3 $lvl2=2
CB40 B:48 net41:26 1.35264e-17 $lvl1=1 $lvl2=1
CB41 B:48 net41:21 1.65174e-17 $lvl1=1 $lvl2=2
CB42 B:42 VSS!:6 9.28281e-18 $lvl1=3 $lvl2=2
CB43 Mmn1@2:g VSS!:6 8.18117e-18 $lvl1=3 $lvl2=2
CB44 B:40 VSS!:6 6.25036e-18 $lvl1=3 $lvl2=2
CB45 B:36 VSS!:4 6.04877e-18 $lvl1=3 $lvl2=2
CB46 B:32 VSS!:11 5.74718e-18 $lvl1=3 $lvl2=2
CB47 B:46 VSS!:11 4.24633e-18 $lvl1=2 $lvl2=2
CB48 B:32 VSS!:1 3.51237e-18 $lvl1=3 $lvl2=2
CB49 B:50 VSS!:26 3.25427e-18 $lvl1=1 $lvl2=1
CB50 B:36 VSS!:6 3.06703e-18 $lvl1=3 $lvl2=2
CB51 B:50 VSS!:25 2.83144e-18 $lvl1=1 $lvl2=1
CB52 B:44 VSS!:1 2.8282e-18 $lvl1=2 $lvl2=2
CB53 B:32 VSS!:18 2.40988e-18 $lvl1=3 $lvl2=2
CB54 B:48 VSS!:26 2.35115e-18 $lvl1=1 $lvl2=1
CB55 B:48 VSS!:1 2.25079e-18 $lvl1=1 $lvl2=2
CB56 B:45 VSS!:1 2.04162e-18 $lvl1=2 $lvl2=2
CB57 B:48 VSS!:25 2.0098e-18 $lvl1=1 $lvl2=1
CB58 B:46 VSS!:1 1.61262e-18 $lvl1=2 $lvl2=2
CB59 B:50 VSS!:11 1.48915e-18 $lvl1=1 $lvl2=2
CB60 Mmn1@2:g VSS!:1 1.34081e-18 $lvl1=3 $lvl2=2
CB61 B:42 VSS!:18 1.30881e-16 $lvl1=3 $lvl2=2
CB62 B:40 VSS!:11 1.27457e-16 $lvl1=3 $lvl2=2
CB63 B:36 VSS!:1 1.32414e-16 $lvl1=3 $lvl2=2
CB64 B:50 VSS!:1 1.03796e-17 $lvl1=1 $lvl2=2
CB65 Mmn1@2:g VSS!:11 1.33971e-16 $lvl1=3 $lvl2=2
CB66 B:29 VDD!:6 9.09636e-18 $lvl1=3 $lvl2=2
CB67 B:43 VDD!:6 8.32263e-18 $lvl1=3 $lvl2=2
CB68 B:41 VDD!:6 8.11821e-18 $lvl1=3 $lvl2=2
CB69 B:39 VDD!:6 7.10303e-18 $lvl1=3 $lvl2=2
CB70 B:44 VDD! 5.62614e-18 $lvl1=2 $lvl2=1
CB71 B:45 VDD! 2.19842e-18 $lvl1=2 $lvl2=1
CB72 B:48 VDD! 2.55892e-17 $lvl1=1 $lvl2=1
CB73 B:50 VDD! 1.68217e-17 $lvl1=1 $lvl2=1
CB74 B:32 VDD! 1.13028e-17 $lvl1=3 $lvl2=1
CB75 B:32 Y:18 9.06287e-18 $lvl1=3 $lvl2=2
CB76 B:32 Y:9 8.93676e-18 $lvl1=3 $lvl2=2
CB77 B:46 Y:18 8.30254e-18 $lvl1=2 $lvl2=2
CB78 B:46 Y:9 8.03685e-18 $lvl1=2 $lvl2=2
CB79 B:46 Y:27 7.48922e-18 $lvl1=2 $lvl2=1
CB80 B:50 Y:34 6.95927e-18 $lvl1=1 $lvl2=1
CB81 B:47 Y 6.53125e-18 $lvl1=2 $lvl2=1
CB82 B:50 Y 6.32934e-18 $lvl1=1 $lvl2=1
CB83 B:32 Y 5.68768e-18 $lvl1=3 $lvl2=1
CB84 B:48 Y 5.59044e-18 $lvl1=1 $lvl2=1
CB85 B:48 Y:21 5.33472e-18 $lvl1=1 $lvl2=2
CB86 B:32 Y:22 5.21357e-18 $lvl1=3 $lvl2=2
CB87 B:50 Y:22 5.20331e-18 $lvl1=1 $lvl2=2
CB88 B:46 Y:28 4.94442e-18 $lvl1=2 $lvl2=1
CB89 B:32 Y:13 4.58248e-18 $lvl1=3 $lvl2=2
CB90 B:46 Y:22 4.36642e-18 $lvl1=2 $lvl2=2
CB91 B:48 Y:18 3.44053e-18 $lvl1=1 $lvl2=2
CB92 B:50 Y:27 2.88356e-18 $lvl1=1 $lvl2=1
CB93 B:48 Y:28 2.70835e-18 $lvl1=1 $lvl2=1
CB94 B:46 Y:13 2.61647e-18 $lvl1=2 $lvl2=2
CB95 B:48 Y:34 1.90913e-18 $lvl1=1 $lvl2=1
CB96 B:32 Mmp1:d 1.66371e-18 $lvl1=3 $lvl2=4
CB97 B:46 Y:21 1.57703e-18 $lvl1=2 $lvl2=2
CB98 B:47 Y:9 1.54165e-18 $lvl1=2 $lvl2=2
CB99 B:46 Y:12 1.53761e-18 $lvl1=2 $lvl2=2
CB100 B:32 Mmp1@2:d 1.4612e-18 $lvl1=3 $lvl2=4
CB101 B:47 Y:28 1.44199e-18 $lvl1=2 $lvl2=1
CB102 B:44 Y:18 1.16499e-18 $lvl1=2 $lvl2=2
CB103 B:45 Y:18 1.16397e-18 $lvl1=2 $lvl2=2
CB104 B:41 Y:18 1.11335e-18 $lvl1=3 $lvl2=2
CB105 B:32 Y:27 1.07253e-18 $lvl1=3 $lvl2=1
CB106 B:45 Y:22 1.04297e-18 $lvl1=2 $lvl2=2
CB107 B:45 Y:27 1.02815e-18 $lvl1=2 $lvl2=1
CB108 B:46 Y:34 9.36916e-19 $lvl1=2 $lvl2=1
CB109 B:50 Y:28 9.29464e-19 $lvl1=1 $lvl2=1
CB110 B:32 Mmn1@2:d 8.8318e-19 $lvl1=3 $lvl2=4
CB111 B:32 Y:28 8.60219e-19 $lvl1=3 $lvl2=1
CB112 B:40 Y:22 8.46676e-19 $lvl1=3 $lvl2=2
CB113 B:39 Y:9 7.94404e-19 $lvl1=3 $lvl2=2
CB114 B:32 Mmn1:d 7.26601e-19 $lvl1=3 $lvl2=4
CB115 B:42 Y:13 1.28039e-16 $lvl1=3 $lvl2=2
CB116 B:40 Y:13 1.28153e-16 $lvl1=3 $lvl2=2
CB117 B:46 Y 2.7392e-17 $lvl1=2 $lvl2=1
CB118 B:36 Y:22 1.335e-16 $lvl1=3 $lvl2=2
CB119 B:48 Y:27 6.99928e-17 $lvl1=1 $lvl2=1
CB120 Mmn1@2:g Y:22 1.28935e-16 $lvl1=3 $lvl2=2
CB121 B:29 Y:18 2.51269e-16 $lvl1=3 $lvl2=2
CB122 B:39 Y:18 2.53085e-16 $lvl1=3 $lvl2=2
CB123 B:41 Y:9 2.53359e-16 $lvl1=3 $lvl2=2
CB124 B:43 Y:9 2.50417e-16 $lvl1=3 $lvl2=2
ReB30 B:48 B 0.310096 $metal1  $L=0.645 $W=0.260000 $SI_W=0.26 $TYPE=10 $DIR=1 $LLX=3.550000 $LLY=1.955000 $URX=3.810000 $URY=2.600000 $lvl=1
ReB31 B B:49 0.064904 $metal1  $L=0.135 $W=0.260000 $SI_W=0.26 $TYPE=10 $DIR=1 $LLX=3.565000 $LLY=1.820000 $URX=3.825000 $URY=1.955000 $lvl=1
ReB32 B:49 B:50 0.221154 $metal1  $L=0.46 $W=0.260000 $SI_W=0.26 $TYPE=10 $DIR=1 $LLX=3.550000 $LLY=1.360000 $URX=3.810000 $URY=1.820000 $lvl=1
RfB33 B:44 B:45 12.423529 $li  $L=0.165 $W=0.170000 $SI_W=0.17 $TYPE=10 $DIR=0 $LLX=3.680000 $LLY=1.735000 $URX=3.845000 $URY=1.905000 $lvl=2
RfB34 B:45 B:46 63.247059 $li  $L=0.84 $W=0.170000 $SI_W=0.17 $TYPE=10 $DIR=0 $LLX=2.840000 $LLY=1.735000 $URX=3.680000 $URY=1.905000 $lvl=2
RfB35 B:46 B:47 59.482353 $li  $L=0.79 $W=0.170000 $SI_W=0.17 $TYPE=10 $DIR=0 $LLX=2.050000 $LLY=1.735000 $URX=2.840000 $URY=1.905000 $lvl=2
RgB36 B:29 Mmp1@3:g 282.773346 $poly  $L=0.88 $W=0.150000 $SI_W=0.15 $TYPE=10 $DIR=1 $LLX=3.410000 $LLY=3.015000 $URX=3.560000 $URY=3.895000 $lvl=3
RgB37 Mmp1@3:g B:30 364.668701 $poly  $L=1.19475 $W=0.150000 $SI_W=0.15 $TYPE=10 $DIR=1 $LLX=3.410000 $LLY=1.820000 $URX=3.560000 $URY=3.015000 $lvl=3
RgB38 B:30 B:31 76.762962 $poly  $L=0.43 $W=0.270000 $SI_W=0.27 $TYPE=10 $DIR=0 $LLX=3.055000 $LLY=1.685000 $URX=3.485000 $URY=1.955000 $lvl=3
RgB39 B:31 B:32 38.426109 $poly  $L=0.21525 $W=0.270000 $SI_W=0.27 $TYPE=10 $DIR=0 $LLX=2.840000 $LLY=1.685000 $URX=3.055000 $URY=1.955000 $lvl=3
RgB40 B:32 B:33 38.336849 $poly  $L=0.21475 $W=0.270000 $SI_W=0.27 $TYPE=10 $DIR=0 $LLX=2.625000 $LLY=1.685000 $URX=2.840000 $URY=1.955000 $lvl=3
RgB41 B:33 B:34 76.762962 $poly  $L=0.43 $W=0.270000 $SI_W=0.27 $TYPE=10 $DIR=0 $LLX=2.195000 $LLY=1.685000 $URX=2.625000 $URY=1.955000 $lvl=3
RgB42 B:34 B:35 22.359444 $poly  $L=0.12525 $W=0.270000 $SI_W=0.27 $TYPE=10 $DIR=0 $LLX=2.070000 $LLY=1.685000 $URX=2.195000 $URY=1.955000 $lvl=3
RgB43 B:30 Mmn1@3:g 316.557953 $poly  $L=1.04525 $W=0.150000 $SI_W=0.15 $TYPE=10 $DIR=1 $LLX=3.410000 $LLY=0.775000 $URX=3.560000 $URY=1.820000 $lvl=3
RgB44 Mmn1@3:g B:36 170.306671 $poly  $L=0.53 $W=0.150000 $SI_W=0.15 $TYPE=10 $DIR=1 $LLX=3.410000 $LLY=0.245000 $URX=3.560000 $URY=0.775000 $lvl=3
RgB45 B:30 B:37 22.180927 $poly  $L=0.12425 $W=0.270000 $SI_W=0.27 $TYPE=10 $DIR=0 $LLX=3.485000 $LLY=1.685000 $URX=3.609000 $URY=1.955000 $lvl=3
RgB46 B:31 Mmn1@2:g 316.557953 $poly  $L=1.04525 $W=0.150000 $SI_W=0.15 $TYPE=10 $DIR=1 $LLX=2.980000 $LLY=0.775000 $URX=3.130000 $URY=1.820000 $lvl=3
RgB47 Mmn1@2:g B:38 170.306671 $poly  $L=0.53 $W=0.150000 $SI_W=0.15 $TYPE=10 $DIR=1 $LLX=2.980000 $LLY=0.245000 $URX=3.130000 $URY=0.775000 $lvl=3
RgB48 B:31 Mmp1@2:g 364.668701 $poly  $L=1.19475 $W=0.150000 $SI_W=0.15 $TYPE=10 $DIR=1 $LLX=2.980000 $LLY=1.820000 $URX=3.130000 $URY=3.015000 $lvl=3
RgB49 Mmp1@2:g B:39 282.773346 $poly  $L=0.88 $W=0.150000 $SI_W=0.15 $TYPE=10 $DIR=1 $LLX=2.980000 $LLY=3.015000 $URX=3.130000 $URY=3.895000 $lvl=3
RgB50 B:33 Mmn1@1:g 316.557953 $poly  $L=1.04525 $W=0.150000 $SI_W=0.15 $TYPE=10 $DIR=1 $LLX=2.550000 $LLY=0.775000 $URX=2.700000 $URY=1.820000 $lvl=3
RgB51 Mmn1@1:g B:40 170.306671 $poly  $L=0.53 $W=0.150000 $SI_W=0.15 $TYPE=10 $DIR=1 $LLX=2.550000 $LLY=0.245000 $URX=2.700000 $URY=0.775000 $lvl=3
RgB52 B:33 Mmp1@1:g 364.668701 $poly  $L=1.19475 $W=0.150000 $SI_W=0.15 $TYPE=10 $DIR=1 $LLX=2.550000 $LLY=1.820000 $URX=2.700000 $URY=3.015000 $lvl=3
RgB53 Mmp1@1:g B:41 282.773346 $poly  $L=0.88 $W=0.150000 $SI_W=0.15 $TYPE=10 $DIR=1 $LLX=2.550000 $LLY=3.015000 $URX=2.700000 $URY=3.895000 $lvl=3
RgB54 B:34 Mmn1:g 316.557953 $poly  $L=1.04525 $W=0.150000 $SI_W=0.15 $TYPE=10 $DIR=1 $LLX=2.120000 $LLY=0.775000 $URX=2.270000 $URY=1.820000 $lvl=3
RgB55 Mmn1:g B:42 170.306671 $poly  $L=0.53 $W=0.150000 $SI_W=0.15 $TYPE=10 $DIR=1 $LLX=2.120000 $LLY=0.245000 $URX=2.270000 $URY=0.775000 $lvl=3
RgB56 B:34 Mmp1:g 364.668701 $poly  $L=1.19475 $W=0.150000 $SI_W=0.15 $TYPE=10 $DIR=1 $LLX=2.120000 $LLY=1.820000 $URX=2.270000 $URY=3.015000 $lvl=3
RgB57 Mmp1:g B:43 282.773346 $poly  $L=0.88 $W=0.150000 $SI_W=0.15 $TYPE=10 $DIR=1 $LLX=2.120000 $LLY=3.015000 $URX=2.270000 $URY=3.895000 $lvl=3
RjB58 B:45 B:49 152.000000 $mcon  $L=0.17 $W=0.17 $A=0.0289 $VC=0 $SAVL=0 $SAVC=0 $SI_A=0.0289 $COVER_DIR=0 $LLX=0.000000 $LLY=0.000000 $URX=0.170000 $URY=0.170000 $lvl=6
RiB59 B:32 B:46 3.750000 $licon  $A=0.1156 $VC=0 $SAVL=0 $SAVC=0 $SI_A=0.1156 $COVER_DIR=0 $LLX=0.000000 $LLY=0.000000 $URX=-0.115600 $URY=-4.000000 $lvl=7
*
*|NET VSS! 3.23466e-15
*|P (VSS! X 0 2.4150 0.0050) // $llx=2.4150 $lly=0.0050 $urx=2.4150 $ury=0.0050 $lvl=1
*|I (Mmn0:s Mmn0 s X 0 0.3995 0.7750) // $llx=0.3995 $lly=0.7750 $urx=0.3995 $ury=0.7750 $lvl=4
*|I (Mmn0:b Mmn0 b X 0 0.4750 0.7750) // $llx=0.4750 $lly=0.7750 $urx=0.4750 $ury=0.7750 $lvl=8
*|I (Mmn0@1:s Mmn0@1 s X 0 0.9805 0.7750) // $llx=0.9805 $lly=0.7750 $urx=0.9805 $ury=0.7750 $lvl=4
*|I (Mmn0@1:b Mmn0@1 b X 0 0.9050 0.7750) // $llx=0.9050 $lly=0.7750 $urx=0.9050 $ury=0.7750 $lvl=8
*|I (Mmn0@2:s Mmn0@2 s X 0 1.2595 0.7750) // $llx=1.2595 $lly=0.7750 $urx=1.2595 $ury=0.7750 $lvl=4
*|I (Mmn0@2:b Mmn0@2 b X 0 1.3350 0.7750) // $llx=1.3350 $lly=0.7750 $urx=1.3350 $ury=0.7750 $lvl=8
*|I (Mmn0@3:s Mmn0@3 s X 0 1.8405 0.7750) // $llx=1.8405 $lly=0.7750 $urx=1.8405 $ury=0.7750 $lvl=4
*|I (Mmn0@3:b Mmn0@3 b X 0 1.7650 0.7750) // $llx=1.7650 $lly=0.7750 $urx=1.7650 $ury=0.7750 $lvl=8
*|I (Mmn1:s Mmn1 s X 0 2.1195 0.7750) // $llx=2.1195 $lly=0.7750 $urx=2.1195 $ury=0.7750 $lvl=4
*|I (Mmn1:b Mmn1 b X 0 2.1950 0.7750) // $llx=2.1950 $lly=0.7750 $urx=2.1950 $ury=0.7750 $lvl=8
*|I (Mmn1@1:s Mmn1@1 s X 0 2.7005 0.7750) // $llx=2.7005 $lly=0.7750 $urx=2.7005 $ury=0.7750 $lvl=4
*|I (Mmn1@1:b Mmn1@1 b X 0 2.6250 0.7750) // $llx=2.6250 $lly=0.7750 $urx=2.6250 $ury=0.7750 $lvl=8
*|I (Mmn1@2:s Mmn1@2 s X 0 2.9795 0.7750) // $llx=2.9795 $lly=0.7750 $urx=2.9795 $ury=0.7750 $lvl=4
*|I (Mmn1@2:b Mmn1@2 b X 0 3.0550 0.7750) // $llx=3.0550 $lly=0.7750 $urx=3.0550 $ury=0.7750 $lvl=8
*|I (Mmn1@3:s Mmn1@3 s X 0 3.5605 0.7750) // $llx=3.5605 $lly=0.7750 $urx=3.5605 $ury=0.7750 $lvl=4
*|I (Mmn1@3:b Mmn1@3 b X 0 3.4850 0.7750) // $llx=3.4850 $lly=0.7750 $urx=3.4850 $ury=0.7750 $lvl=8
*|S (VSS!:1 3.7000 1.1550) // $llx=3.7000 $lly=1.1550 $urx=3.7000 $ury=1.1550 $lvl=2
*|S (VSS!:3 3.7000 0.7750) // $llx=3.7000 $lly=0.7750 $urx=3.7000 $ury=0.7750 $lvl=2
*|S (VSS!:4 3.7000 0.0000) // $llx=3.7000 $lly=0.0000 $urx=3.7000 $ury=0.0000 $lvl=2
*|S (VSS!:5 2.8400 0.0000) // $llx=2.8400 $lly=0.0000 $urx=2.8400 $ury=0.0000 $lvl=2
*|S (VSS!:6 2.0700 0.0000) // $llx=2.0700 $lly=0.0000 $urx=2.0700 $ury=0.0000 $lvl=2
*|S (VSS!:7 2.0700 0.0000) // $llx=2.0700 $lly=0.0000 $urx=2.0700 $ury=0.0000 $lvl=4
*|S (VSS!:9 4.1395 0.0000) // $llx=4.1395 $lly=0.0000 $urx=4.1395 $ury=0.0000 $lvl=2
*|S (VSS!:11 2.8400 0.7750) // $llx=2.8400 $lly=0.7750 $urx=2.8400 $ury=0.7750 $lvl=2
*|S (VSS!:12 2.8400 1.1550) // $llx=2.8400 $lly=1.1550 $urx=2.8400 $ury=1.1550 $lvl=2
*|S (VSS!:13 1.1200 0.0000) // $llx=1.1200 $lly=0.0000 $urx=1.1200 $ury=0.0000 $lvl=2
*|S (VSS!:14 0.2600 0.0000) // $llx=0.2600 $lly=0.0000 $urx=0.2600 $ury=0.0000 $lvl=2
*|S (VSS!:15 0.0000 0.0000) // $llx=0.0000 $lly=0.0000 $urx=0.0000 $ury=0.0000 $lvl=2
*|S (VSS!:17 1.9800 0.7750) // $llx=1.9800 $lly=0.7750 $urx=1.9800 $ury=0.7750 $lvl=2
*|S (VSS!:18 1.9800 1.1550) // $llx=1.9800 $lly=1.1550 $urx=1.9800 $ury=1.1550 $lvl=2
*|S (VSS!:20 1.1200 0.7750) // $llx=1.1200 $lly=0.7750 $urx=1.1200 $ury=0.7750 $lvl=2
*|S (VSS!:21 1.1200 1.1550) // $llx=1.1200 $lly=1.1550 $urx=1.1200 $ury=1.1550 $lvl=2
*|S (VSS!:23 0.2600 0.7750) // $llx=0.2600 $lly=0.7750 $urx=0.2600 $ury=0.7750 $lvl=2
*|S (VSS!:24 0.2600 1.1550) // $llx=0.2600 $lly=1.1550 $urx=0.2600 $ury=1.1550 $lvl=2
*|S (VSS!:25 4.1400 0.0000) // $llx=4.1400 $lly=0.0000 $urx=4.1400 $ury=0.0000 $lvl=1
*|S (VSS!:26 2.0700 0.0000) // $llx=2.0700 $lly=0.0000 $urx=2.0700 $ury=0.0000 $lvl=1
*|S (VSS!:27 0.0000 0.0000) // $llx=0.0000 $lly=0.0000 $urx=0.0000 $ury=0.0000 $lvl=1
ReE124 VSS!:25 VSS! 0.539062 $metal1  $L=1.725 $W=0.400000 $SI_W=0.4 $TYPE=10 $DIR=0 $LLX=2.415000 $LLY=-0.199500 $URX=4.140000 $URY=0.200000 $lvl=1
ReE125 VSS! VSS!:26 0.107813 $metal1  $L=0.345 $W=0.400000 $SI_W=0.4 $TYPE=10 $DIR=0 $LLX=2.070000 $LLY=-0.199500 $URX=2.415000 $URY=0.200000 $lvl=1
ReE126 VSS!:26 VSS!:27 0.646875 $metal1  $L=2.07 $W=0.400000 $SI_W=0.4 $TYPE=10 $DIR=0 $LLX=0.000000 $LLY=-0.199500 $URX=2.070000 $URY=0.200000 $lvl=1
RfE127 VSS!:1 VSS!:3 28.611765 $li  $L=0.38 $W=0.170000 $SI_W=0.17 $TYPE=10 $DIR=1 $LLX=3.615000 $LLY=0.775000 $URX=3.785000 $URY=1.155000 $lvl=2
RfE128 VSS!:3 VSS!:4 55.328377 $li  $L=0.77475 $W=0.170000 $SI_W=0.17 $TYPE=10 $DIR=1 $LLX=3.615000 $LLY=0.000000 $URX=3.785000 $URY=0.775000 $lvl=2
RfE129 VSS!:4 VSS!:5 44.031998 $li  $L=0.86 $W=0.250000 $SI_W=0.25 $TYPE=10 $DIR=0 $LLX=2.840000 $LLY=-0.124500 $URX=3.700000 $URY=0.125000 $lvl=2
RfE130 VSS!:5 VSS!:6 39.436802 $li  $L=0.77025 $W=0.250000 $SI_W=0.25 $TYPE=10 $DIR=0 $LLX=2.070000 $LLY=-0.124500 $URX=2.840000 $URY=0.125000 $lvl=2
RfE131 VSS!:4 VSS!:9 22.489599 $li  $L=0.43925 $W=0.250000 $SI_W=0.25 $TYPE=10 $DIR=0 $LLX=3.700000 $LLY=-0.124500 $URX=4.139000 $URY=0.125000 $lvl=2
RfE132 VSS!:5 VSS!:11 55.328377 $li  $L=0.77475 $W=0.170000 $SI_W=0.17 $TYPE=10 $DIR=1 $LLX=2.755000 $LLY=0.000000 $URX=2.925000 $URY=0.775000 $lvl=2
RfE133 VSS!:11 VSS!:12 28.611765 $li  $L=0.38 $W=0.170000 $SI_W=0.17 $TYPE=10 $DIR=1 $LLX=2.755000 $LLY=0.775000 $URX=2.925000 $URY=1.155000 $lvl=2
RfE134 VSS!:6 VSS!:13 48.627201 $li  $L=0.94975 $W=0.250000 $SI_W=0.25 $TYPE=10 $DIR=0 $LLX=1.120000 $LLY=-0.124500 $URX=2.070000 $URY=0.125000 $lvl=2
RfE135 VSS!:13 VSS!:14 44.031998 $li  $L=0.86 $W=0.250000 $SI_W=0.25 $TYPE=10 $DIR=0 $LLX=0.260000 $LLY=-0.124500 $URX=1.120000 $URY=0.125000 $lvl=2
RfE136 VSS!:14 VSS!:15 13.324800 $li  $L=0.26025 $W=0.250000 $SI_W=0.25 $TYPE=10 $DIR=0 $LLX=0.000000 $LLY=-0.124500 $URX=0.260000 $URY=0.125000 $lvl=2
RfE137 VSS!:6 VSS!:17 55.341179 $li  $L=0.775 $W=0.170000 $SI_W=0.17 $TYPE=10 $DIR=1 $LLX=1.895000 $LLY=0.000000 $URX=2.065000 $URY=0.775000 $lvl=2
RfE138 VSS!:17 VSS!:18 28.611765 $li  $L=0.38 $W=0.170000 $SI_W=0.17 $TYPE=10 $DIR=1 $LLX=1.895000 $LLY=0.775000 $URX=2.065000 $URY=1.155000 $lvl=2
RfE139 VSS!:13 VSS!:20 55.328377 $li  $L=0.77475 $W=0.170000 $SI_W=0.17 $TYPE=10 $DIR=1 $LLX=1.035000 $LLY=0.000000 $URX=1.205000 $URY=0.775000 $lvl=2
RfE140 VSS!:20 VSS!:21 28.611765 $li  $L=0.38 $W=0.170000 $SI_W=0.17 $TYPE=10 $DIR=1 $LLX=1.035000 $LLY=0.775000 $URX=1.205000 $URY=1.155000 $lvl=2
RfE141 VSS!:14 VSS!:23 55.328377 $li  $L=0.77475 $W=0.170000 $SI_W=0.17 $TYPE=10 $DIR=1 $LLX=0.175000 $LLY=0.000000 $URX=0.345000 $URY=0.775000 $lvl=2
RfE142 VSS!:23 VSS!:24 28.611765 $li  $L=0.38 $W=0.170000 $SI_W=0.17 $TYPE=10 $DIR=1 $LLX=0.175000 $LLY=0.775000 $URX=0.345000 $URY=1.155000 $lvl=2
RhE143 Mmn1@3:s VSS!:3 7.500000 $licon_diff  $A=0.0578 $VC=0 $SAVL=0 $SAVC=0 $SI_A=0.0578 $COVER_DIR=0 $LLX=0.000000 $LLY=0.000000 $URX=-0.057800 $URY=-2.000000 $lvl=5
RhE144 Mmn1@1:s VSS!:11 7.500000 $licon_diff  $A=0.0578 $VC=0 $SAVL=0 $SAVC=0 $SI_A=0.0578 $COVER_DIR=0 $LLX=0.000000 $LLY=0.000000 $URX=-0.057800 $URY=-2.000000 $lvl=5
RhE145 Mmn0@3:s VSS!:17 7.500000 $licon_diff  $A=0.0578 $VC=0 $SAVL=0 $SAVC=0 $SI_A=0.0578 $COVER_DIR=0 $LLX=0.000000 $LLY=0.000000 $URX=-0.057800 $URY=-2.000000 $lvl=5
RhE146 Mmn0@1:s VSS!:20 7.500000 $licon_diff  $A=0.0578 $VC=0 $SAVL=0 $SAVC=0 $SI_A=0.0578 $COVER_DIR=0 $LLX=0.000000 $LLY=0.000000 $URX=-0.057800 $URY=-2.000000 $lvl=5
RhE147 Mmn0:s VSS!:23 7.500000 $licon_diff  $A=0.0578 $VC=0 $SAVL=0 $SAVC=0 $SI_A=0.0578 $COVER_DIR=0 $LLX=0.000000 $LLY=0.000000 $URX=-0.057800 $URY=-2.000000 $lvl=5
Rh_3_E148 VSS!:7 VSS!:6 1.875000 $licon_diff  $A=0.2312 $VC=0 $SAVL=0 $SAVC=0 $SI_A=0.2312 $COVER_DIR=0 $LLX=0.000000 $LLY=0.000000 $URX=-0.231200 $URY=-8.000000 $lvl=5
RjE149 VSS!:6 VSS!:26 19.000000 $mcon  $A=0.2312 $VC=0 $SAVL=0 $SAVC=0 $SI_A=0.2312 $COVER_DIR=0 $LLX=0.000000 $LLY=0.000000 $URX=-0.231200 $URY=-8.000000 $lvl=6
RmwE150 Mmn0:b VSS! 0.001000 $FOX $W=1000000 $SI_W=1000000 $TYPE=1 $DIR=0
RmwE151 Mmn0@1:b VSS! 0.001000 $FOX $W=1000000 $SI_W=1000000 $TYPE=1 $DIR=0
RmwE152 Mmn0@2:s Mmn0@1:s 0.001000 $diff $W=1000000 $SI_W=1000000 $TYPE=1 $DIR=0
RmwE153 Mmn0@2:b VSS! 0.001000 $FOX $W=1000000 $SI_W=1000000 $TYPE=1 $DIR=0
RmwE154 Mmn0@3:b VSS! 0.001000 $FOX $W=1000000 $SI_W=1000000 $TYPE=1 $DIR=0
RmwE155 Mmn1:s Mmn0@3:s 0.001000 $diff $W=1000000 $SI_W=1000000 $TYPE=1 $DIR=0
RmwE156 Mmn1:b VSS! 0.001000 $FOX $W=1000000 $SI_W=1000000 $TYPE=1 $DIR=0
RmwE157 Mmn1@1:b VSS! 0.001000 $FOX $W=1000000 $SI_W=1000000 $TYPE=1 $DIR=0
RmwE158 Mmn1@2:s Mmn1@1:s 0.001000 $diff $W=1000000 $SI_W=1000000 $TYPE=1 $DIR=0
RmwE159 Mmn1@2:b VSS! 0.001000 $FOX $W=1000000 $SI_W=1000000 $TYPE=1 $DIR=0
RmwE160 Mmn1@3:b VSS! 0.001000 $FOX $W=1000000 $SI_W=1000000 $TYPE=1 $DIR=0
*
*|NET Y 4.44349e-15
*|P (Y X 0 2.3150 1.9600) // $llx=2.3150 $lly=1.9600 $urx=2.3150 $ury=1.9600 $lvl=1
*|I (Mmp1:d Mmp1 d X 0 2.2705 3.0150) // $llx=2.2705 $lly=3.0150 $urx=2.2705 $ury=3.0150 $lvl=4
*|I (Mmp1@1:d Mmp1@1 d X 0 2.5495 3.0150) // $llx=2.5495 $lly=3.0150 $urx=2.5495 $ury=3.0150 $lvl=4
*|I (Mmp1@2:d Mmp1@2 d X 0 3.1305 3.0150) // $llx=3.1305 $lly=3.0150 $urx=3.1305 $ury=3.0150 $lvl=4
*|I (Mmp1@3:d Mmp1@3 d X 0 3.4095 3.0150) // $llx=3.4095 $lly=3.0150 $urx=3.4095 $ury=3.0150 $lvl=4
*|I (Mmn0:d Mmn0 d X 0 0.5505 0.7750) // $llx=0.5505 $lly=0.7750 $urx=0.5505 $ury=0.7750 $lvl=4
*|I (Mmn0@1:d Mmn0@1 d X 0 0.8295 0.7750) // $llx=0.8295 $lly=0.7750 $urx=0.8295 $ury=0.7750 $lvl=4
*|I (Mmn0@2:d Mmn0@2 d X 0 1.4105 0.7750) // $llx=1.4105 $lly=0.7750 $urx=1.4105 $ury=0.7750 $lvl=4
*|I (Mmn0@3:d Mmn0@3 d X 0 1.6895 0.7750) // $llx=1.6895 $lly=0.7750 $urx=1.6895 $ury=0.7750 $lvl=4
*|I (Mmn1:d Mmn1 d X 0 2.2705 0.7750) // $llx=2.2705 $lly=0.7750 $urx=2.2705 $ury=0.7750 $lvl=4
*|I (Mmn1@1:d Mmn1@1 d X 0 2.5495 0.7750) // $llx=2.5495 $lly=0.7750 $urx=2.5495 $ury=0.7750 $lvl=4
*|I (Mmn1@2:d Mmn1@2 d X 0 3.1305 0.7750) // $llx=3.1305 $lly=0.7750 $urx=3.1305 $ury=0.7750 $lvl=4
*|I (Mmn1@3:d Mmn1@3 d X 0 3.4095 0.7750) // $llx=3.4095 $lly=0.7750 $urx=3.4095 $ury=0.7750 $lvl=4
*|S (Y:1 0.6900 1.1550) // $llx=0.6900 $lly=1.1550 $urx=0.6900 $ury=1.1550 $lvl=2
*|S (Y:3 0.6900 0.7750) // $llx=0.6900 $lly=0.7750 $urx=0.6900 $ury=0.7750 $lvl=2
*|S (Y:4 0.6900 0.5600) // $llx=0.6900 $lly=0.5600 $urx=0.6900 $ury=0.5600 $lvl=2
*|S (Y:5 1.5500 1.1550) // $llx=1.5500 $lly=1.1550 $urx=1.5500 $ury=1.1550 $lvl=2
*|S (Y:7 1.5500 0.7750) // $llx=1.5500 $lly=0.7750 $urx=1.5500 $ury=0.7750 $lvl=2
*|S (Y:8 1.5500 0.5600) // $llx=1.5500 $lly=0.5600 $urx=1.5500 $ury=0.5600 $lvl=2
*|S (Y:9 2.4100 3.7450) // $llx=2.4100 $lly=3.7450 $urx=2.4100 $ury=3.7450 $lvl=2
*|S (Y:11 2.4100 3.0150) // $llx=2.4100 $lly=3.0150 $urx=2.4100 $ury=3.0150 $lvl=2
*|S (Y:12 2.4100 2.5700) // $llx=2.4100 $lly=2.5700 $urx=2.4100 $ury=2.5700 $lvl=2
*|S (Y:13 2.4100 1.1550) // $llx=2.4100 $lly=1.1550 $urx=2.4100 $ury=1.1550 $lvl=2
*|S (Y:14 2.4100 0.8100) // $llx=2.4100 $lly=0.8100 $urx=2.4100 $ury=0.8100 $lvl=2
*|S (Y:16 2.4100 0.7750) // $llx=2.4100 $lly=0.7750 $urx=2.4100 $ury=0.7750 $lvl=2
*|S (Y:17 2.4100 0.3950) // $llx=2.4100 $lly=0.3950 $urx=2.4100 $ury=0.3950 $lvl=2
*|S (Y:18 3.2700 3.7450) // $llx=3.2700 $lly=3.7450 $urx=3.2700 $ury=3.7450 $lvl=2
*|S (Y:20 3.2700 3.0150) // $llx=3.2700 $lly=3.0150 $urx=3.2700 $ury=3.0150 $lvl=2
*|S (Y:21 3.2700 2.5700) // $llx=3.2700 $lly=2.5700 $urx=3.2700 $ury=2.5700 $lvl=2
*|S (Y:22 3.2700 1.1550) // $llx=3.2700 $lly=1.1550 $urx=3.2700 $ury=1.1550 $lvl=2
*|S (Y:24 3.2700 0.7750) // $llx=3.2700 $lly=0.7750 $urx=3.2700 $ury=0.7750 $lvl=2
*|S (Y:25 3.2700 0.5600) // $llx=3.2700 $lly=0.5600 $urx=3.2700 $ury=0.5600 $lvl=2
*|S (Y:26 3.2700 2.5700) // $llx=3.2700 $lly=2.5700 $urx=3.2700 $ury=2.5700 $lvl=1
*|S (Y:27 3.2700 2.3600) // $llx=3.2700 $lly=2.3600 $urx=3.2700 $ury=2.3600 $lvl=1
*|S (Y:28 2.3475 2.3600) // $llx=2.3475 $lly=2.3600 $urx=2.3475 $ury=2.3600 $lvl=1
*|S (Y:29 2.4100 0.8100) // $llx=2.4100 $lly=0.8100 $urx=2.4100 $ury=0.8100 $lvl=1
*|S (Y:30 2.3475 0.5600) // $llx=2.3475 $lly=0.5600 $urx=2.3475 $ury=0.5600 $lvl=1
*|S (Y:31 1.5500 0.5600) // $llx=1.5500 $lly=0.5600 $urx=1.5500 $ury=0.5600 $lvl=1
*|S (Y:32 0.6900 0.5600) // $llx=0.6900 $lly=0.5600 $urx=0.6900 $ury=0.5600 $lvl=1
*|S (Y:33 2.4100 2.5700) // $llx=2.4100 $lly=2.5700 $urx=2.4100 $ury=2.5700 $lvl=1
*|S (Y:34 3.2700 0.5600) // $llx=3.2700 $lly=0.5600 $urx=3.2700 $ury=0.5600 $lvl=1
CC1 Mmn1@2:d VSS! 5.1086e-19 $lvl=4
CC2 Mmn1:d VSS! 7.16509e-19 $lvl=4
CC3 Mmn0@2:d VSS! 1.28389e-18 $lvl=4
CC4 Mmn0:d VSS! 1.51679e-19 $lvl=4
CC5 Mmp1@2:d VSS! 5.06491e-19 $lvl=4
CC6 Mmp1:d VSS! 6.66562e-19 $lvl=4
CC7 Y:34 VSS! 4.92429e-18 $lvl=1
CC8 Y:32 VSS! 6.97032e-18 $lvl=1
CC9 Y:31 VSS! 6.39206e-18 $lvl=1
CC10 Y:27 VSS! 8.82799e-18 $lvl=1
CC11 Y:28 VSS! 9.50623e-18 $lvl=1
CC12 Y:22 VSS! 5.8114e-18 $lvl=2
CC13 Y:18 VSS! 4.03037e-18 $lvl=2
CC14 Y:13 VSS! 1.35835e-17 $lvl=2
CC15 Y:17 VSS! 1.68097e-18 $lvl=2
CC16 Y:9 VSS! 5.99616e-18 $lvl=2
CC17 Y:5 VSS! 9.79335e-18 $lvl=2
CC18 Y:1 VSS! 1.13783e-17 $lvl=2
CC19 Y:4 VSS! 2.39473e-18 $lvl=2
CC20 Y:8 VSS! 8.07049e-19 $lvl=2
CC21 Y:14 VSS! 1.85914e-18 $lvl=2
CC22 Y:12 VSS! 2.13087e-18 $lvl=2
CC23 Y:25 VSS! 1.81862e-18 $lvl=2
CC24 Y:21 VSS! 1.73383e-18 $lvl=2
CC25 Y VSS! 1.2247e-17 $lvl=1
CC26 Y:18 net41:26 9.93078e-18 $lvl1=2 $lvl2=1
CC27 Y:28 net41:11 9.61468e-18 $lvl1=1 $lvl2=2
CC28 Y:18 net41:28 9.55852e-18 $lvl1=2 $lvl2=1
CC29 Y:9 net41:15 9.19933e-18 $lvl1=2 $lvl2=2
CC30 Y:9 net41:29 9.09678e-18 $lvl1=2 $lvl2=1
CC31 Y:18 net41:25 7.58735e-18 $lvl1=2 $lvl2=2
CC32 Y:28 net41:19 6.9007e-18 $lvl1=1 $lvl2=2
CC33 Y:18 net41:20 6.86974e-18 $lvl1=2 $lvl2=2
CC34 Y:9 net41:20 6.77739e-18 $lvl1=2 $lvl2=2
CC35 Y:27 net41:19 6.48139e-18 $lvl1=1 $lvl2=2
CC36 Y:12 net41:11 4.31018e-18 $lvl1=2 $lvl2=2
CC37 Y:28 net41:30 3.80403e-18 $lvl1=1 $lvl2=1
CC38 Y:21 net41:21 3.73067e-18 $lvl1=2 $lvl2=2
CC39 Y:28 net41:20 3.72272e-18 $lvl1=1 $lvl2=2
CC40 Y:9 net41:12 3.67124e-18 $lvl1=2 $lvl2=2
CC41 Y:28 net41:15 3.60241e-18 $lvl1=1 $lvl2=2
CC42 Y:18 net41:22 3.57591e-18 $lvl1=2 $lvl2=2
CC43 Y:18 net41:17 3.41997e-18 $lvl1=2 $lvl2=2
CC44 Y:21 net41:19 3.36808e-18 $lvl1=2 $lvl2=2
CC45 Y:27 net41:20 3.33197e-18 $lvl1=1 $lvl2=2
CC46 Y:12 net41:19 3.32028e-18 $lvl1=2 $lvl2=2
CC47 Mmp1@2:d net41:19 3.11668e-18 $lvl1=4 $lvl2=2
CC48 Y:9 net41:17 2.68655e-18 $lvl1=2 $lvl2=2
CC49 Y:27 net41:21 2.618e-18 $lvl1=1 $lvl2=2
CC50 Y net41:29 2.42682e-18 $lvl1=1 $lvl2=1
CC51 Y:21 net41:28 2.02973e-18 $lvl1=2 $lvl2=1
CC52 Y:21 net41:26 1.93617e-18 $lvl1=2 $lvl2=1
CC53 Y net41:30 1.84671e-18 $lvl1=1 $lvl2=1
CC54 Y:12 net41:29 1.79319e-18 $lvl1=2 $lvl2=1
CC55 Y:12 net41:28 1.786e-18 $lvl1=2 $lvl2=1
CC56 Y net41:15 1.71806e-18 $lvl1=1 $lvl2=2
CC57 Y:27 net41:29 1.60586e-18 $lvl1=1 $lvl2=1
CC58 Y net41:28 1.57412e-18 $lvl1=1 $lvl2=1
CC59 Y:28 net41:26 1.57133e-18 $lvl1=1 $lvl2=1
CC60 Y:28 net41:12 1.18787e-18 $lvl1=1 $lvl2=2
CC61 Mmp1:d net41:11 1.17816e-18 $lvl1=4 $lvl2=2
CC62 Y:21 net41:25 1.16175e-18 $lvl1=2 $lvl2=2
CC63 Y net41:11 1.10142e-18 $lvl1=1 $lvl2=2
CC64 Y:28 net41:17 9.18986e-19 $lvl1=1 $lvl2=2
CC65 Y:21 net41:22 9.02378e-19 $lvl1=2 $lvl2=2
CC66 Y net41:10 8.59073e-19 $lvl1=1 $lvl2=2
CC67 Y:21 net41:20 8.51878e-19 $lvl1=2 $lvl2=2
CC68 Y:12 net41:12 8.34687e-19 $lvl1=2 $lvl2=2
CC69 Y:12 net41:15 8.33595e-19 $lvl1=2 $lvl2=2
CC70 Y:21 net41:17 8.33259e-19 $lvl1=2 $lvl2=2
CC71 Y:12 net41:17 8.26872e-19 $lvl1=2 $lvl2=2
CC72 Y:12 net41:20 7.99823e-19 $lvl1=2 $lvl2=2
CC73 Y:31 net41:30 7.54408e-19 $lvl1=1 $lvl2=1
CC74 Y:28 net41:10 7.53163e-19 $lvl1=1 $lvl2=2
CC75 Y:9 net41:28 1.01252e-17 $lvl1=2 $lvl2=1
CC76 Y:27 net41:26 2.43371e-17 $lvl1=1 $lvl2=1
CC77 Y:9 net41:11 1.02106e-16 $lvl1=2 $lvl2=2
CC78 Y:18 net41:19 9.73901e-17 $lvl1=2 $lvl2=2
CC79 Y:28 net41:28 3.1195e-17 $lvl1=1 $lvl2=1
CC80 Y:27 net41:28 2.75128e-17 $lvl1=1 $lvl2=1
CC81 Y:18 net41:21 9.80584e-17 $lvl1=2 $lvl2=2
CC82 Y:28 net41:29 4.30094e-17 $lvl1=1 $lvl2=1
CC83 Y:9 net41:19 9.75755e-17 $lvl1=2 $lvl2=2
CC84 Y:4 VSS!:24 9.50972e-18 $lvl1=2 $lvl2=2
CC85 Y:34 VSS!:11 9.45059e-18 $lvl1=1 $lvl2=2