*
*|DSPF 1.5
*
*|DATE "Wed Jan  8 20:31:10 2025"
*|VENDOR "Cadence Design Systems"
*|PROGRAM "Cadence Quantus Extraction"
*|VERSION "22.1.0-p089 Linux 64 bit - (Thu Jan 19 11:47:08 PST 2023)"
*|DESIGN NOR3X4_HS
*|DIVIDER /
*|DELIMITER :
*|DeviceFingerDelim "@"
*|BUSBIT []
*|GLOBAL_TEMPERATURE 25
*|OPERATING_TEMPERATURE 25

** *VIA_COVERAGE_CODES
** *index FF FS FP FU SF SS SP SU PF PS PP PU UF US UP UU X_by_Y
** * "FF" stands for Full landing and Full coverage
** *0 0 0 0 0 0 0 0 0 0 0 0 0 0 0 0 0
** *1 0 0 0 0 0 0 0 0 0 0 0 0 0 0 0 1 1x1
** *2 0 0 0 0 0 0 0 0 0 0 0 0 0 0 1 0 1x1
** *3 0 0 0 0 0 0 0 0 0 0 0 0 0 1 0 0 1x1
** *4 0 0 0 0 0 0 0 0 0 0 0 0 1 0 0 0 1x1
** *5 0 0 0 0 0 0 0 0 0 0 0 1 0 0 0 0 1x1
** *6 0 0 0 0 0 0 0 0 0 0 1 0 0 0 0 0 1x1
** *7 0 0 0 0 0 0 0 0 0 1 0 0 0 0 0 0 1x1
** *8 0 0 0 0 0 0 0 0 1 0 0 0 0 0 0 0 1x1
** *9 0 0 0 0 0 0 0 1 0 0 0 0 0 0 0 0 1x1
** *10 0 0 0 0 0 0 1 0 0 0 0 0 0 0 0 0 1x1
** *11 0 0 0 0 0 1 0 0 0 0 0 0 0 0 0 0 1x1
** *12 0 0 0 0 1 0 0 0 0 0 0 0 0 0 0 0 1x1
** *13 0 0 0 1 0 0 0 0 0 0 0 0 0 0 0 0 1x1
** *14 0 0 1 0 0 0 0 0 0 0 0 0 0 0 0 0 1x1
** *15 0 1 0 0 0 0 0 0 0 0 0 0 0 0 0 0 1x1
** *16 1 0 0 0 0 0 0 0 0 0 0 0 0 0 0 0 1x1

** *RESISTOR_TYPES
** *1 SHORTING_ELEMENT
** *2 PRES_NG
** *3 PRES_PG
** *4 PRES_NF
** *5 PRES_PF
** *6 TCN_NDIFF
** *7 TCN_PDIFF
** *8 TCN_NFIELD
** *9 TCN_PFIELD
** *10 QUALITY_EXTRACTED
** *11 GCNLAND
** *12 TCNLAND
** *13 DUMMY
** *14 RSD
** *15 BRIDGE

** *RESISTOR_CURRENT_DIRECTION
** *0 HORIZONTAL
** *1 VERTICAL
** *2 45 DEGREE

** QRC_TECH_DIR /vols/wfo_devel/projects/reference_SKY130/tech/sky130_release_0.0.4/quantus/extraction/typical 
** HIERARCHICAL_SPLIT_PINS_DELIMITER '%'
** caps2d version: 10
*
.SUBCKT  NOR3X4_HS A B C Y
*
*Net Section
*
*|GROUND_NET VSS!
*
*LAYER_MAP
*0 none
*1 metal1
*2 li
*3 poly
*4 diff
*5 licon_diff
*6 mcon
*7 licon
*8 FOX

*|NET C 3.66695e-15
*|P (C X 0 5.0750 1.4400) // $llx=5.0750 $lly=1.4400 $urx=5.0750 $ury=1.4400 $lvl=1
*|I (Mmp2:g Mmp2 g X 0 4.4350 3.0150) // $llx=4.4350 $lly=3.0150 $urx=4.4350 $ury=3.0150 $lvl=3
*|I (Mmp2@2:g Mmp2@2 g X 0 4.8650 3.0150) // $llx=4.8650 $lly=3.0150 $urx=4.8650 $ury=3.0150 $lvl=3
*|I (Mmp2@1:g Mmp2@1 g X 0 5.2950 3.0150) // $llx=5.2950 $lly=3.0150 $urx=5.2950 $ury=3.0150 $lvl=3
*|I (Mmp2@3:g Mmp2@3 g X 0 5.7250 3.0150) // $llx=5.7250 $lly=3.0150 $urx=5.7250 $ury=3.0150 $lvl=3
*|I (Mmn2:g Mmn2 g X 0 4.4350 0.7750) // $llx=4.4350 $lly=0.7750 $urx=4.4350 $ury=0.7750 $lvl=3
*|I (Mmn2@3:g Mmn2@3 g X 0 4.8650 0.7750) // $llx=4.8650 $lly=0.7750 $urx=4.8650 $ury=0.7750 $lvl=3
*|I (Mmn2@1:g Mmn2@1 g X 0 5.2950 0.7750) // $llx=5.2950 $lly=0.7750 $urx=5.2950 $ury=0.7750 $lvl=3
*|I (Mmn2@2:g Mmn2@2 g X 0 5.7250 0.7750) // $llx=5.7250 $lly=0.7750 $urx=5.7250 $ury=0.7750 $lvl=3
*|S (C:29 5.7250 3.8950) // $llx=5.7250 $lly=3.8950 $urx=5.7250 $ury=3.8950 $lvl=3
*|S (C:30 5.7250 1.4300) // $llx=5.7250 $lly=1.4300 $urx=5.7250 $ury=1.4300 $lvl=3
*|S (C:31 5.2950 1.4300) // $llx=5.2950 $lly=1.4300 $urx=5.2950 $ury=1.4300 $lvl=3
*|S (C:32 5.0800 1.4300) // $llx=5.0800 $lly=1.4300 $urx=5.0800 $ury=1.4300 $lvl=3
*|S (C:33 4.8650 1.4300) // $llx=4.8650 $lly=1.4300 $urx=4.8650 $ury=1.4300 $lvl=3
*|S (C:34 4.4350 1.4300) // $llx=4.4350 $lly=1.4300 $urx=4.4350 $ury=1.4300 $lvl=3
*|S (C:35 5.7250 0.2450) // $llx=5.7250 $lly=0.2450 $urx=5.7250 $ury=0.2450 $lvl=3
*|S (C:36 5.2950 0.2450) // $llx=5.2950 $lly=0.2450 $urx=5.2950 $ury=0.2450 $lvl=3
*|S (C:37 5.2950 3.8950) // $llx=5.2950 $lly=3.8950 $urx=5.2950 $ury=3.8950 $lvl=3
*|S (C:38 4.8650 0.2450) // $llx=4.8650 $lly=0.2450 $urx=4.8650 $ury=0.2450 $lvl=3
*|S (C:39 4.8650 3.8950) // $llx=4.8650 $lly=3.8950 $urx=4.8650 $ury=3.8950 $lvl=3
*|S (C:40 4.4350 3.8950) // $llx=4.4350 $lly=3.8950 $urx=4.4350 $ury=3.8950 $lvl=3
*|S (C:41 4.4350 0.2450) // $llx=4.4350 $lly=0.2450 $urx=4.4350 $ury=0.2450 $lvl=3
*|S (C:42 5.0800 1.4300) // $llx=5.0800 $lly=1.4300 $urx=5.0800 $ury=1.4300 $lvl=2
*|S (C:43 5.0600 1.4300) // $llx=5.0600 $lly=1.4300 $urx=5.0600 $ury=1.4300 $lvl=2
*|S (C:44 5.0600 1.4300) // $llx=5.0600 $lly=1.4300 $urx=5.0600 $ury=1.4300 $lvl=1
CC1 Mmn2@2:g VSS! 1.75579e-18 $lvl=3
CC2 Mmn2@3:g VSS! 1.62093e-18 $lvl=3
CC3 Mmn2:g VSS! 3.96169e-18 $lvl=3
CC4 C:29 VSS! 1.91867e-18 $lvl=3
CC5 C:37 VSS! 3.21275e-18 $lvl=3
CC6 C:39 VSS! 3.6272e-18 $lvl=3
CC7 C:40 VSS! 3.8282e-18 $lvl=3
CC8 C:36 VSS! 2.1285e-18 $lvl=3
CC9 C:42 VSS! 1.81479e-17 $lvl=2
CC10 C:43 VSS! 6.05197e-18 $lvl=2
CC11 C:32 VSS! 4.89265e-17 $lvl=3
CC12 C VSS! 1.83864e-17 $lvl=1
CC13 C n1:12 4.26246e-18 $lvl1=1 $lvl2=2
CC14 C:32 n1:12 3.36081e-18 $lvl1=3 $lvl2=2
CC15 C n1:24 3.18089e-18 $lvl1=1 $lvl2=1
CC16 C:42 n1:19 2.78303e-18 $lvl1=2 $lvl2=1
CC17 C:32 n1:13 2.77822e-18 $lvl1=3 $lvl2=2
CC18 C:42 n1:12 2.76907e-18 $lvl1=2 $lvl2=2
CC19 C n1:13 2.39369e-18 $lvl1=1 $lvl2=2
CC20 C:39 n1:12 2.58521e-16 $lvl1=3 $lvl2=2
CC21 C n1:18 2.79283e-17 $lvl1=1 $lvl2=1
CC22 C n1:19 3.72598e-17 $lvl1=1 $lvl2=1
CC23 C:37 n1:13 2.50742e-16 $lvl1=3 $lvl2=2
CC24 C:29 n1:13 2.56161e-16 $lvl1=3 $lvl2=2
CC25 C:40 n1:12 2.55131e-16 $lvl1=3 $lvl2=2
CC26 C:36 VSS!:5 8.68182e-18 $lvl1=3 $lvl2=2
CC27 Mmn2:g VSS!:6 8.65744e-18 $lvl1=3 $lvl2=2
CC28 C:43 VSS!:19 8.14846e-18 $lvl1=2 $lvl2=2
CC29 C:42 VSS!:22 6.95934e-18 $lvl1=2 $lvl2=2
CC30 C:42 VSS!:1 6.8326e-18 $lvl1=2 $lvl2=2
CC31 Mmn2@3:g VSS!:5 6.42181e-18 $lvl1=3 $lvl2=2
CC32 C VSS!:39 5.82864e-18 $lvl1=1 $lvl2=1
CC33 C:32 VSS!:1 5.32555e-18 $lvl1=3 $lvl2=2
CC34 C:32 VSS!:22 5.19317e-18 $lvl1=3 $lvl2=2
CC35 Mmn2@2:g VSS!:5 4.67245e-18 $lvl1=3 $lvl2=2
CC36 Mmn2@3:g VSS!:6 3.72901e-18 $lvl1=3 $lvl2=2
CC37 Mmn2@2:g VSS!:4 3.57655e-18 $lvl1=3 $lvl2=2
CC38 C VSS!:22 2.80893e-18 $lvl1=1 $lvl2=2
CC39 C:32 Mmn2@3:s 2.13168e-18 $lvl1=3 $lvl2=4
CC40 Mmn2@2:g VSS!:1 1.31183e-16 $lvl1=3 $lvl2=2
CC41 C:32 VSS!:19 1.62246e-17 $lvl1=3 $lvl2=2
CC42 Mmn2@3:g VSS!:19 1.30368e-16 $lvl1=3 $lvl2=2
CC43 Mmn2:g VSS!:22 1.3292e-16 $lvl1=3 $lvl2=2
CC44 C:36 VSS!:19 1.28264e-16 $lvl1=3 $lvl2=2
CC45 C VSS!:19 1.32082e-17 $lvl1=1 $lvl2=2
CC46 C:42 VSS!:19 1.38594e-17 $lvl1=2 $lvl2=2
CC47 C:40 VDD!:6 9.41788e-18 $lvl1=3 $lvl2=2
CC48 C:39 VDD!:6 8.04591e-18 $lvl1=3 $lvl2=2
CC49 C:37 VDD!:6 7.89098e-18 $lvl1=3 $lvl2=2
CC50 C:29 VDD!:6 7.58619e-18 $lvl1=3 $lvl2=2
CC51 C VDD! 1.31368e-17 $lvl1=1 $lvl2=1
CC52 C:42 Y:47 9.94265e-18 $lvl1=2 $lvl2=1
CC53 C Y:25 8.13795e-18 $lvl1=1 $lvl2=2
CC54 C Y:31 5.35515e-18 $lvl1=1 $lvl2=2
CC55 C:32 Y:47 3.6876e-18 $lvl1=3 $lvl2=1
CC56 C Y:30 3.43844e-18 $lvl1=1 $lvl2=2
CC57 C:42 Y:45 3.22153e-18 $lvl1=2 $lvl2=1
CC58 C Y:41 2.85676e-18 $lvl1=1 $lvl2=1
CC59 C:32 Mmn2:d 2.03017e-18 $lvl1=3 $lvl2=4
CC60 C:42 Y:40 2.0282e-18 $lvl1=2 $lvl2=1
CC61 C:32 Y:35 1.83396e-18 $lvl1=3 $lvl2=2
CC62 C:43 Y:25 1.80273e-18 $lvl1=2 $lvl2=2
CC63 C:32 Y:30 1.49599e-18 $lvl1=3 $lvl2=2
CC64 C:43 Y:31 1.40235e-18 $lvl1=2 $lvl2=2
CC65 C:40 Y:21 1.39742e-18 $lvl1=3 $lvl2=2
CC66 C Y:34 1.39081e-18 $lvl1=1 $lvl2=2
CC67 C Y:48 1.35889e-18 $lvl1=1 $lvl2=1
CC68 C:32 Mmn2@1:d 1.30875e-18 $lvl1=3 $lvl2=4
CC69 C:32 Y:26 1.2825e-18 $lvl1=3 $lvl2=2
CC70 C:43 Y:47 1.24789e-18 $lvl1=2 $lvl2=1
CC71 C:37 Y:30 1.22912e-18 $lvl1=3 $lvl2=2
CC72 C:39 Y:30 1.18084e-18 $lvl1=3 $lvl2=2
CC73 C:42 Y:30 1.17818e-18 $lvl1=2 $lvl2=2
CC74 C:42 Y:35 1.09675e-18 $lvl1=2 $lvl2=2
CC75 C Y:50 1.03241e-18 $lvl1=1 $lvl2=1
CC76 C:32 Y:21 1.00129e-18 $lvl1=3 $lvl2=2
CC77 C:29 Y:47 9.94363e-19 $lvl1=3 $lvl2=1
CC78 C:42 Y:21 8.96225e-19 $lvl1=2 $lvl2=2
CC79 C:32 Y:45 8.73677e-19 $lvl1=3 $lvl2=1
CC80 C:40 Y:26 8.70255e-19 $lvl1=3 $lvl2=2
CC81 C:32 Y:17 8.4168e-19 $lvl1=3 $lvl2=2
CC82 C:37 Y:35 8.26476e-19 $lvl1=3 $lvl2=2
CC83 C:42 Y:39 7.67184e-19 $lvl1=2 $lvl2=1
CC84 C Y:21 7.40347e-19 $lvl1=1 $lvl2=2
CC85 C:42 Y:41 6.98546e-19 $lvl1=2 $lvl2=1
CC86 C:37 Y:26 2.49423e-16 $lvl1=3 $lvl2=2
CC87 Mmn2:g Y:25 1.26819e-16 $lvl1=3 $lvl2=2
CC88 C:42 Y:25 1.71535e-17 $lvl1=2 $lvl2=2
CC89 Mmn2@2:g Y:31 1.26976e-16 $lvl1=3 $lvl2=2
CC90 C:42 Y:31 1.69507e-17 $lvl1=2 $lvl2=2
CC91 C Y:40 4.46878e-17 $lvl1=1 $lvl2=1
CC92 C Y:39 3.25038e-17 $lvl1=1 $lvl2=1
CC93 C:39 Y:26 2.49147e-16 $lvl1=3 $lvl2=2
CC94 C Y:47 2.36011e-17 $lvl1=1 $lvl2=1
CC95 C Y:45 1.20313e-17 $lvl1=1 $lvl2=1
CC96 C:29 Y:35 2.52225e-16 $lvl1=3 $lvl2=2
CC97 C:32 Y:25 1.44454e-17 $lvl1=3 $lvl2=2
CC98 Mmn2@3:g Y:25 1.25972e-16 $lvl1=3 $lvl2=2
CC99 C:40 Y:17 2.54088e-16 $lvl1=3 $lvl2=2
CC100 C:32 Y:31 1.37633e-17 $lvl1=3 $lvl2=2
CC101 C:36 Y:31 1.25802e-16 $lvl1=3 $lvl2=2
ReC51 C C:44 0.001512 $metal1  $L=0.015 $W=1.240000 $SI_W=1.24 $TYPE=10 $DIR=0 $LLX=5.060000 $LLY=0.845000 $URX=5.075000 $URY=2.085000 $lvl=1
RfC52 C:42 C:43 1.505882 $li  $L=0.02 $W=0.170000 $SI_W=0.17 $TYPE=10 $DIR=0 $LLX=5.060000 $LLY=1.345000 $URX=5.080000 $URY=1.515000 $lvl=2
RgC53 C:29 Mmp2@3:g 282.773346 $poly  $L=0.88 $W=0.150000 $SI_W=0.15 $TYPE=10 $DIR=1 $LLX=5.650000 $LLY=3.015000 $URX=5.800000 $URY=3.895000 $lvl=3
RgC54 Mmp2@3:g C:30 509.233002 $poly  $L=1.58475 $W=0.150000 $SI_W=0.15 $TYPE=10 $DIR=1 $LLX=5.650000 $LLY=1.430000 $URX=5.800000 $URY=3.015000 $lvl=3
RgC55 C:30 C:31 76.762962 $poly  $L=0.43 $W=0.270000 $SI_W=0.27 $TYPE=10 $DIR=0 $LLX=5.295000 $LLY=1.295000 $URX=5.725000 $URY=1.565000 $lvl=3
RgC56 C:31 C:32 38.426109 $poly  $L=0.21525 $W=0.270000 $SI_W=0.27 $TYPE=10 $DIR=0 $LLX=5.080000 $LLY=1.295000 $URX=5.295000 $URY=1.565000 $lvl=3
RgC57 C:32 C:33 38.336849 $poly  $L=0.21475 $W=0.270000 $SI_W=0.27 $TYPE=10 $DIR=0 $LLX=4.865000 $LLY=1.295000 $URX=5.080000 $URY=1.565000 $lvl=3
RgC58 C:33 C:34 76.762962 $poly  $L=0.43 $W=0.270000 $SI_W=0.27 $TYPE=10 $DIR=0 $LLX=4.435000 $LLY=1.295000 $URX=4.865000 $URY=1.565000 $lvl=3
RgC59 C:34 Mmn2:g 210.553665 $poly  $L=0.65525 $W=0.150000 $SI_W=0.15 $TYPE=10 $DIR=1 $LLX=4.360000 $LLY=0.775000 $URX=4.510000 $URY=1.430000 $lvl=3
RgC60 C:30 Mmn2@2:g 210.553665 $poly  $L=0.65525 $W=0.150000 $SI_W=0.15 $TYPE=10 $DIR=1 $LLX=5.650000 $LLY=0.775000 $URX=5.800000 $URY=1.430000 $lvl=3
RgC61 Mmn2@2:g C:35 170.306671 $poly  $L=0.53 $W=0.150000 $SI_W=0.15 $TYPE=10 $DIR=1 $LLX=5.650000 $LLY=0.245000 $URX=5.800000 $URY=0.775000 $lvl=3
RgC62 C:31 Mmn2@1:g 191.237961 $poly  $L=0.65525 $W=0.150000 $SI_W=0.15 $TYPE=10 $DIR=1 $LLX=5.220000 $LLY=0.775000 $URX=5.370000 $URY=1.430000 $lvl=3
RgC63 Mmn2@1:g C:36 170.306671 $poly  $L=0.53 $W=0.150000 $SI_W=0.15 $TYPE=10 $DIR=1 $LLX=5.220000 $LLY=0.245000 $URX=5.370000 $URY=0.775000 $lvl=3
RgC64 C:31 Mmp2@1:g 489.988708 $poly  $L=1.58475 $W=0.150000 $SI_W=0.15 $TYPE=10 $DIR=1 $LLX=5.220000 $LLY=1.430000 $URX=5.370000 $URY=3.015000 $lvl=3
RgC65 Mmp2@1:g C:37 282.773346 $poly  $L=0.88 $W=0.150000 $SI_W=0.15 $TYPE=10 $DIR=1 $LLX=5.220000 $LLY=3.015000 $URX=5.370000 $URY=3.895000 $lvl=3
RgC66 C:33 Mmn2@3:g 191.237961 $poly  $L=0.65525 $W=0.150000 $SI_W=0.15 $TYPE=10 $DIR=1 $LLX=4.790000 $LLY=0.775000 $URX=4.940000 $URY=1.430000 $lvl=3
RgC67 Mmn2@3:g C:38 170.306671 $poly  $L=0.53 $W=0.150000 $SI_W=0.15 $TYPE=10 $DIR=1 $LLX=4.790000 $LLY=0.245000 $URX=4.940000 $URY=0.775000 $lvl=3
RgC68 C:33 Mmp2@2:g 489.988708 $poly  $L=1.58475 $W=0.150000 $SI_W=0.15 $TYPE=10 $DIR=1 $LLX=4.790000 $LLY=1.430000 $URX=4.940000 $URY=3.015000 $lvl=3
RgC69 Mmp2@2:g C:39 282.773346 $poly  $L=0.88 $W=0.150000 $SI_W=0.15 $TYPE=10 $DIR=1 $LLX=4.790000 $LLY=3.015000 $URX=4.940000 $URY=3.895000 $lvl=3
RgC70 C:34 Mmp2:g 509.233002 $poly  $L=1.58475 $W=0.150000 $SI_W=0.15 $TYPE=10 $DIR=1 $LLX=4.360000 $LLY=1.430000 $URX=4.510000 $URY=3.015000 $lvl=3
RgC71 Mmp2:g C:40 282.773346 $poly  $L=0.88 $W=0.150000 $SI_W=0.15 $TYPE=10 $DIR=1 $LLX=4.360000 $LLY=3.015000 $URX=4.510000 $URY=3.895000 $lvl=3
RgC72 Mmn2:g C:41 170.306671 $poly  $L=0.53 $W=0.150000 $SI_W=0.15 $TYPE=10 $DIR=1 $LLX=4.360000 $LLY=0.245000 $URX=4.510000 $URY=0.775000 $lvl=3
RjC73 C:43 C:44 152.000000 $mcon  $L=0.17 $W=0.17 $A=0.0289 $VC=0 $SAVL=0 $SAVC=0 $SI_A=0.0289 $COVER_DIR=0 $LLX=0.000000 $LLY=0.000000 $URX=0.170000 $URY=0.170000 $lvl=6
RiC74 C:32 C:42 5.000000 $licon  $A=0.0867 $VC=0 $SAVL=0 $SAVC=0 $SI_A=0.0867 $COVER_DIR=0 $LLX=0.000000 $LLY=0.000000 $URX=-0.086700 $URY=-3.000000 $lvl=7
*
*|NET B 3.68986e-15
*|P (B X 0 2.3200 1.4400) // $llx=2.3200 $lly=1.4400 $urx=2.3200 $ury=1.4400 $lvl=1
*|I (Mmp1:g Mmp1 g X 0 2.1950 3.0150) // $llx=2.1950 $lly=3.0150 $urx=2.1950 $ury=3.0150 $lvl=3
*|I (Mmp1@3:g Mmp1@3 g X 0 2.6250 3.0150) // $llx=2.6250 $lly=3.0150 $urx=2.6250 $ury=3.0150 $lvl=3
*|I (Mmp1@1:g Mmp1@1 g X 0 3.0550 3.0150) // $llx=3.0550 $lly=3.0150 $urx=3.0550 $ury=3.0150 $lvl=3
*|I (Mmp1@2:g Mmp1@2 g X 0 3.4850 3.0150) // $llx=3.4850 $lly=3.0150 $urx=3.4850 $ury=3.0150 $lvl=3
*|I (Mmn1:g Mmn1 g X 0 2.1950 0.7750) // $llx=2.1950 $lly=0.7750 $urx=2.1950 $ury=0.7750 $lvl=3
*|I (Mmn1@2:g Mmn1@2 g X 0 2.6250 0.7750) // $llx=2.6250 $lly=0.7750 $urx=2.6250 $ury=0.7750 $lvl=3
*|I (Mmn1@1:g Mmn1@1 g X 0 3.0550 0.7750) // $llx=3.0550 $lly=0.7750 $urx=3.0550 $ury=0.7750 $lvl=3
*|I (Mmn1@3:g Mmn1@3 g X 0 3.4850 0.7750) // $llx=3.4850 $lly=0.7750 $urx=3.4850 $ury=0.7750 $lvl=3
*|S (B:29 3.4850 3.8950) // $llx=3.4850 $lly=3.8950 $urx=3.4850 $ury=3.8950 $lvl=3
*|S (B:30 3.4850 1.4300) // $llx=3.4850 $lly=1.4300 $urx=3.4850 $ury=1.4300 $lvl=3
*|S (B:31 3.0550 1.4300) // $llx=3.0550 $lly=1.4300 $urx=3.0550 $ury=1.4300 $lvl=3
*|S (B:32 2.8400 1.4300) // $llx=2.8400 $lly=1.4300 $urx=2.8400 $ury=1.4300 $lvl=3
*|S (B:33 2.6250 1.4300) // $llx=2.6250 $lly=1.4300 $urx=2.6250 $ury=1.4300 $lvl=3
*|S (B:34 2.1950 1.4300) // $llx=2.1950 $lly=1.4300 $urx=2.1950 $ury=1.4300 $lvl=3
*|S (B:35 3.4850 0.2450) // $llx=3.4850 $lly=0.2450 $urx=3.4850 $ury=0.2450 $lvl=3
*|S (B:36 3.0550 0.2450) // $llx=3.0550 $lly=0.2450 $urx=3.0550 $ury=0.2450 $lvl=3
*|S (B:37 3.0550 3.8950) // $llx=3.0550 $lly=3.8950 $urx=3.0550 $ury=3.8950 $lvl=3
*|S (B:38 2.6250 0.2450) // $llx=2.6250 $lly=0.2450 $urx=2.6250 $ury=0.2450 $lvl=3
*|S (B:39 2.6250 3.8950) // $llx=2.6250 $lly=3.8950 $urx=2.6250 $ury=3.8950 $lvl=3
*|S (B:40 2.1950 3.8950) // $llx=2.1950 $lly=3.8950 $urx=2.1950 $ury=3.8950 $lvl=3
*|S (B:41 2.1950 0.2450) // $llx=2.1950 $lly=0.2450 $urx=2.1950 $ury=0.2450 $lvl=3
*|S (B:42 2.8400 1.4300) // $llx=2.8400 $lly=1.4300 $urx=2.8400 $ury=1.4300 $lvl=2
*|S (B:43 2.3050 1.4300) // $llx=2.3050 $lly=1.4300 $urx=2.3050 $ury=1.4300 $lvl=2
*|S (B:44 2.3050 1.4300) // $llx=2.3050 $lly=1.4300 $urx=2.3050 $ury=1.4300 $lvl=1
CB1 Mmn1@3:g VSS! 2.5441e-18 $lvl=3
CB2 Mmn1@2:g VSS! 1.6821e-18 $lvl=3
CB3 Mmn1:g VSS! 3.89421e-18 $lvl=3
CB4 Mmp1@2:g VSS! 3.63787e-18 $lvl=3
CB5 B:37 VSS! 4.34792e-18 $lvl=3
CB6 B:39 VSS! 3.86429e-18 $lvl=3
CB7 B:40 VSS! 3.58357e-18 $lvl=3
CB8 B:36 VSS! 1.69911e-18 $lvl=3
CB9 B:42 VSS! 2.89907e-17 $lvl=2
CB10 B:43 VSS! 9.62228e-18 $lvl=2
CB11 B:32 VSS! 5.85191e-17 $lvl=3
CB12 B VSS! 2.5516e-17 $lvl=1
CB13 B n0:32 3.63386e-18 $lvl1=1 $lvl2=1
CB14 B n0:9 3.0343e-18 $lvl1=1 $lvl2=2
CB15 B n0:12 1.67581e-18 $lvl1=1 $lvl2=2
CB16 B n0:17 1.65153e-18 $lvl1=1 $lvl2=2
CB17 B:32 n0:17 1.63578e-18 $lvl1=3 $lvl2=2
CB18 B:42 n0:17 1.61376e-18 $lvl1=2 $lvl2=2
CB19 B n0:25 1.54717e-18 $lvl1=1 $lvl2=1
CB20 B:32 n0:16 1.50652e-18 $lvl1=3 $lvl2=2
CB21 B:42 n0:9 1.25597e-18 $lvl1=2 $lvl2=2
CB22 Mmp1@2:g n0:22 1.16148e-18 $lvl1=3 $lvl2=2
CB23 B:42 n0:22 1.10211e-18 $lvl1=2 $lvl2=2
CB24 B:32 n0:9 1.09073e-18 $lvl1=3 $lvl2=2
CB25 B:39 n0:17 1.01723e-18 $lvl1=3 $lvl2=2
CB26 B:39 n0:16 2.51073e-16 $lvl1=3 $lvl2=2
CB27 Mmp1@2:g n0:21 2.53764e-16 $lvl1=3 $lvl2=2
CB28 B n0:26 2.02889e-17 $lvl1=1 $lvl2=1
CB29 B:40 n0:9 2.50252e-16 $lvl1=3 $lvl2=2
CB30 B:37 n0:16 2.53528e-16 $lvl1=3 $lvl2=2
CB31 B n1:24 9.45575e-18 $lvl1=1 $lvl2=1
CB32 B:42 n1:24 5.75169e-18 $lvl1=2 $lvl2=1
CB33 B n1 4.51819e-18 $lvl1=1 $lvl2=2
CB34 B:32 n1:5 3.43997e-18 $lvl1=3 $lvl2=2
CB35 B n1:4 3.21361e-18 $lvl1=1 $lvl2=2
CB36 B:42 n1:5 2.89376e-18 $lvl1=2 $lvl2=2
CB37 B:42 n1 2.35019e-18 $lvl1=2 $lvl2=2
CB38 B:32 n1 2.25728e-18 $lvl1=3 $lvl2=2
CB39 Mmp1@2:g n1:5 2.58712e-16 $lvl1=3 $lvl2=2
CB40 B:37 n1:5 2.56377e-16 $lvl1=3 $lvl2=2
CB41 B:39 n1 2.58349e-16 $lvl1=3 $lvl2=2
CB42 B:40 n1 2.57088e-16 $lvl1=3 $lvl2=2
CB43 B n1:22 3.661e-17 $lvl1=1 $lvl2=1
CB44 Mmn1:g VSS!:12 8.12779e-18 $lvl1=3 $lvl2=2
CB45 B:36 VSS!:8 7.91394e-18 $lvl1=3 $lvl2=2
CB46 B VSS!:39 7.88894e-18 $lvl1=1 $lvl2=1
CB47 Mmn1@3:g VSS!:8 7.79342e-18 $lvl1=3 $lvl2=2
CB48 B:42 VSS!:24 7.54971e-18 $lvl1=2 $lvl2=2
CB49 B:42 VSS!:31 7.11455e-18 $lvl1=2 $lvl2=2
CB50 Mmn1@2:g VSS!:8 6.07229e-18 $lvl1=3 $lvl2=2
CB51 B:32 VSS!:24 5.59679e-18 $lvl1=3 $lvl2=2
CB52 B VSS!:27 4.38589e-18 $lvl1=1 $lvl2=2
CB53 B:32 VSS!:31 4.09174e-18 $lvl1=3 $lvl2=2
CB54 B:43 VSS!:31 3.99552e-18 $lvl1=2 $lvl2=2
CB55 Mmn1@2:g VSS!:12 3.51039e-18 $lvl1=3 $lvl2=2
CB56 Mmn1@3:g VSS!:24 1.30081e-16 $lvl1=3 $lvl2=2
CB57 B:32 VSS!:27 1.49782e-17 $lvl1=3 $lvl2=2
CB58 Mmn1@2:g VSS!:27 1.30754e-16 $lvl1=3 $lvl2=2
CB59 B:36 VSS!:27 1.28273e-16 $lvl1=3 $lvl2=2
CB60 B VSS!:31 1.00441e-17 $lvl1=1 $lvl2=2
CB61 Mmn1:g VSS!:31 1.2881e-16 $lvl1=3 $lvl2=2
CB62 B:42 VSS!:27 1.89341e-17 $lvl1=2 $lvl2=2
CB63 B:37 VDD!:6 9.33983e-18 $lvl1=3 $lvl2=2
CB64 B:39 VDD!:6 9.10064e-18 $lvl1=3 $lvl2=2
CB65 Mmp1@2:g VDD!:6 8.82192e-18 $lvl1=3 $lvl2=2
CB66 B:40 VDD!:6 7.72585e-18 $lvl1=3 $lvl2=2
CB67 B VDD! 1.18047e-17 $lvl1=1 $lvl2=1
CB68 B Y:41 8.32823e-18 $lvl1=1 $lvl2=1
CB69 B:43 Y:9 7.11019e-18 $lvl1=2 $lvl2=2
CB70 B:42 Y:41 4.74665e-18 $lvl1=2 $lvl2=1
CB71 B Y:12 3.68222e-18 $lvl1=1 $lvl2=2
CB72 B Y:5 2.54854e-18 $lvl1=1 $lvl2=2
CB73 B:32 Mmn1:d 2.28478e-18 $lvl1=3 $lvl2=4
CB74 B:32 Mmn1@1:d 2.13259e-18 $lvl1=3 $lvl2=4
CB75 B Y:13 1.26518e-18 $lvl1=1 $lvl2=2
CB76 B:32 Y:13 1.32993e-17 $lvl1=3 $lvl2=2
CB77 Mmn1@3:g Y:13 1.26242e-16 $lvl1=3 $lvl2=2
CB78 B:36 Y:13 1.29832e-16 $lvl1=3 $lvl2=2
CB79 B:42 Y:13 1.89524e-17 $lvl1=2 $lvl2=2
CB80 B:42 Y:9 1.37207e-17 $lvl1=2 $lvl2=2
CB81 B Y:9 1.13664e-17 $lvl1=1 $lvl2=2
CB82 B Y:43 1.32905e-17 $lvl1=1 $lvl2=1
CB83 B Y:42 6.33354e-17 $lvl1=1 $lvl2=1
CB84 B:32 Y:9 1.30455e-17 $lvl1=3 $lvl2=2
CB85 Mmn1@2:g Y:9 1.25619e-16 $lvl1=3 $lvl2=2
CB86 Mmn1:g Y:9 1.29897e-16 $lvl1=3 $lvl2=2
ReB27 B B:44 0.001512 $metal1  $L=0.015 $W=1.240000 $SI_W=1.24 $TYPE=10 $DIR=0 $LLX=2.305000 $LLY=0.845000 $URX=2.320000 $URY=2.085000 $lvl=1
RfB28 B:42 B:43 40.282352 $li  $L=0.535 $W=0.170000 $SI_W=0.17 $TYPE=10 $DIR=0 $LLX=2.305000 $LLY=1.345000 $URX=2.840000 $URY=1.515000 $lvl=2
RgB29 B:29 Mmp1@2:g 282.773346 $poly  $L=0.88 $W=0.150000 $SI_W=0.15 $TYPE=10 $DIR=1 $LLX=3.410000 $LLY=3.015000 $URX=3.560000 $URY=3.895000 $lvl=3
RgB30 Mmp1@2:g B:30 509.233002 $poly  $L=1.58475 $W=0.150000 $SI_W=0.15 $TYPE=10 $DIR=1 $LLX=3.410000 $LLY=1.430000 $URX=3.560000 $URY=3.015000 $lvl=3
RgB31 B:30 B:31 76.762962 $poly  $L=0.43 $W=0.270000 $SI_W=0.27 $TYPE=10 $DIR=0 $LLX=3.055000 $LLY=1.295000 $URX=3.485000 $URY=1.565000 $lvl=3
RgB32 B:31 B:32 38.426109 $poly  $L=0.21525 $W=0.270000 $SI_W=0.27 $TYPE=10 $DIR=0 $LLX=2.840000 $LLY=1.295000 $URX=3.055000 $URY=1.565000 $lvl=3
RgB33 B:32 B:33 38.336849 $poly  $L=0.21475 $W=0.270000 $SI_W=0.27 $TYPE=10 $DIR=0 $LLX=2.625000 $LLY=1.295000 $URX=2.840000 $URY=1.565000 $lvl=3
RgB34 B:33 B:34 76.762962 $poly  $L=0.43 $W=0.270000 $SI_W=0.27 $TYPE=10 $DIR=0 $LLX=2.195000 $LLY=1.295000 $URX=2.625000 $URY=1.565000 $lvl=3
RgB35 B:34 Mmn1:g 210.553665 $poly  $L=0.65525 $W=0.150000 $SI_W=0.15 $TYPE=10 $DIR=1 $LLX=2.120000 $LLY=0.775000 $URX=2.270000 $URY=1.430000 $lvl=3
RgB36 B:30 Mmn1@3:g 210.553665 $poly  $L=0.65525 $W=0.150000 $SI_W=0.15 $TYPE=10 $DIR=1 $LLX=3.410000 $LLY=0.775000 $URX=3.560000 $URY=1.430000 $lvl=3
RgB37 Mmn1@3:g B:35 170.306671 $poly  $L=0.53 $W=0.150000 $SI_W=0.15 $TYPE=10 $DIR=1 $LLX=3.410000 $LLY=0.245000 $URX=3.560000 $URY=0.775000 $lvl=3
RgB38 B:31 Mmn1@1:g 191.237961 $poly  $L=0.65525 $W=0.150000 $SI_W=0.15 $TYPE=10 $DIR=1 $LLX=2.980000 $LLY=0.775000 $URX=3.130000 $URY=1.430000 $lvl=3
RgB39 Mmn1@1:g B:36 170.306671 $poly  $L=0.53 $W=0.150000 $SI_W=0.15 $TYPE=10 $DIR=1 $LLX=2.980000 $LLY=0.245000 $URX=3.130000 $URY=0.775000 $lvl=3
RgB40 B:31 Mmp1@1:g 489.988708 $poly  $L=1.58475 $W=0.150000 $SI_W=0.15 $TYPE=10 $DIR=1 $LLX=2.980000 $LLY=1.430000 $URX=3.130000 $URY=3.015000 $lvl=3
RgB41 Mmp1@1:g B:37 282.773346 $poly  $L=0.88 $W=0.150000 $SI_W=0.15 $TYPE=10 $DIR=1 $LLX=2.980000 $LLY=3.015000 $URX=3.130000 $URY=3.895000 $lvl=3
RgB42 B:33 Mmn1@2:g 191.237961 $poly  $L=0.65525 $W=0.150000 $SI_W=0.15 $TYPE=10 $DIR=1 $LLX=2.550000 $LLY=0.775000 $URX=2.700000 $URY=1.430000 $lvl=3
RgB43 Mmn1@2:g B:38 170.306671 $poly  $L=0.53 $W=0.150000 $SI_W=0.15 $TYPE=10 $DIR=1 $LLX=2.550000 $LLY=0.245000 $URX=2.700000 $URY=0.775000 $lvl=3
RgB44 B:33 Mmp1@3:g 489.988708 $poly  $L=1.58475 $W=0.150000 $SI_W=0.15 $TYPE=10 $DIR=1 $LLX=2.550000 $LLY=1.430000 $URX=2.700000 $URY=3.015000 $lvl=3
RgB45 Mmp1@3:g B:39 282.773346 $poly  $L=0.88 $W=0.150000 $SI_W=0.15 $TYPE=10 $DIR=1 $LLX=2.550000 $LLY=3.015000 $URX=2.700000 $URY=3.895000 $lvl=3
RgB46 B:34 Mmp1:g 509.233002 $poly  $L=1.58475 $W=0.150000 $SI_W=0.15 $TYPE=10 $DIR=1 $LLX=2.120000 $LLY=1.430000 $URX=2.270000 $URY=3.015000 $lvl=3
RgB47 Mmp1:g B:40 282.773346 $poly  $L=0.88 $W=0.150000 $SI_W=0.15 $TYPE=10 $DIR=1 $LLX=2.120000 $LLY=3.015000 $URX=2.270000 $URY=3.895000 $lvl=3
RgB48 Mmn1:g B:41 170.306671 $poly  $L=0.53 $W=0.150000 $SI_W=0.15 $TYPE=10 $DIR=1 $LLX=2.120000 $LLY=0.245000 $URX=2.270000 $URY=0.775000 $lvl=3
RjB49 B:43 B:44 152.000000 $mcon  $L=0.17 $W=0.17 $A=0.0289 $VC=0 $SAVL=0 $SAVC=0 $SI_A=0.0289 $COVER_DIR=0 $LLX=0.000000 $LLY=0.000000 $URX=0.170000 $URY=0.170000 $lvl=6
RiB50 B:32 B:42 5.000000 $licon  $A=0.0867 $VC=0 $SAVL=0 $SAVC=0 $SI_A=0.0867 $COVER_DIR=0 $LLX=0.000000 $LLY=0.000000 $URX=-0.086700 $URY=-3.000000 $lvl=7
*
*|NET VSS! 5.05825e-15
*|P (VSS! X 0 4.8250 0.0050) // $llx=4.8250 $lly=0.0050 $urx=4.8250 $ury=0.0050 $lvl=1
*|I (Mmn0:s Mmn0 s X 0 0.3995 0.7750) // $llx=0.3995 $lly=0.7750 $urx=0.3995 $ury=0.7750 $lvl=4
*|I (Mmn0:b Mmn0 b X 0 0.4750 0.7750) // $llx=0.4750 $lly=0.7750 $urx=0.4750 $ury=0.7750 $lvl=8
*|I (Mmn0@2:s Mmn0@2 s X 0 0.9805 0.7750) // $llx=0.9805 $lly=0.7750 $urx=0.9805 $ury=0.7750 $lvl=4
*|I (Mmn0@2:b Mmn0@2 b X 0 0.9050 0.7750) // $llx=0.9050 $lly=0.7750 $urx=0.9050 $ury=0.7750 $lvl=8
*|I (Mmn0@1:s Mmn0@1 s X 0 1.2595 0.7750) // $llx=1.2595 $lly=0.7750 $urx=1.2595 $ury=0.7750 $lvl=4
*|I (Mmn0@1:b Mmn0@1 b X 0 1.3350 0.7750) // $llx=1.3350 $lly=0.7750 $urx=1.3350 $ury=0.7750 $lvl=8
*|I (Mmn0@3:s Mmn0@3 s X 0 1.8405 0.7750) // $llx=1.8405 $lly=0.7750 $urx=1.8405 $ury=0.7750 $lvl=4
*|I (Mmn0@3:b Mmn0@3 b X 0 1.7650 0.7750) // $llx=1.7650 $lly=0.7750 $urx=1.7650 $ury=0.7750 $lvl=8
*|I (Mmn2:s Mmn2 s X 0 4.3595 0.7750) // $llx=4.3595 $lly=0.7750 $urx=4.3595 $ury=0.7750 $lvl=4
*|I (Mmn2:b Mmn2 b X 0 4.4350 0.7750) // $llx=4.4350 $lly=0.7750 $urx=4.4350 $ury=0.7750 $lvl=8
*|I (Mmn2@3:s Mmn2@3 s X 0 4.9405 0.7750) // $llx=4.9405 $lly=0.7750 $urx=4.9405 $ury=0.7750 $lvl=4
*|I (Mmn2@3:b Mmn2@3 b X 0 4.8650 0.7750) // $llx=4.8650 $lly=0.7750 $urx=4.8650 $ury=0.7750 $lvl=8
*|I (Mmn2@1:s Mmn2@1 s X 0 5.2195 0.7750) // $llx=5.2195 $lly=0.7750 $urx=5.2195 $ury=0.7750 $lvl=4
*|I (Mmn2@1:b Mmn2@1 b X 0 5.2950 0.7750) // $llx=5.2950 $lly=0.7750 $urx=5.2950 $ury=0.7750 $lvl=8
*|I (Mmn2@2:s Mmn2@2 s X 0 5.8005 0.7750) // $llx=5.8005 $lly=0.7750 $urx=5.8005 $ury=0.7750 $lvl=4
*|I (Mmn2@2:b Mmn2@2 b X 0 5.7250 0.7750) // $llx=5.7250 $lly=0.7750 $urx=5.7250 $ury=0.7750 $lvl=8
*|I (Mmn1:s Mmn1 s X 0 2.1195 0.7750) // $llx=2.1195 $lly=0.7750 $urx=2.1195 $ury=0.7750 $lvl=4
*|I (Mmn1:b Mmn1 b X 0 2.1950 0.7750) // $llx=2.1950 $lly=0.7750 $urx=2.1950 $ury=0.7750 $lvl=8
*|I (Mmn1@2:s Mmn1@2 s X 0 2.7005 0.7750) // $llx=2.7005 $lly=0.7750 $urx=2.7005 $ury=0.7750 $lvl=4
*|I (Mmn1@2:b Mmn1@2 b X 0 2.6250 0.7750) // $llx=2.6250 $lly=0.7750 $urx=2.6250 $ury=0.7750 $lvl=8
*|I (Mmn1@1:s Mmn1@1 s X 0 2.9795 0.7750) // $llx=2.9795 $lly=0.7750 $urx=2.9795 $ury=0.7750 $lvl=4
*|I (Mmn1@1:b Mmn1@1 b X 0 3.0550 0.7750) // $llx=3.0550 $lly=0.7750 $urx=3.0550 $ury=0.7750 $lvl=8
*|I (Mmn1@3:s Mmn1@3 s X 0 3.5605 0.7750) // $llx=3.5605 $lly=0.7750 $urx=3.5605 $ury=0.7750 $lvl=4
*|I (Mmn1@3:b Mmn1@3 b X 0 3.4850 0.7750) // $llx=3.4850 $lly=0.7750 $urx=3.4850 $ury=0.7750 $lvl=8
*|S (VSS!:1 5.9400 1.1550) // $llx=5.9400 $lly=1.1550 $urx=5.9400 $ury=1.1550 $lvl=2
*|S (VSS!:3 5.9400 0.7750) // $llx=5.9400 $lly=0.7750 $urx=5.9400 $ury=0.7750 $lvl=2
*|S (VSS!:4 5.9400 0.0000) // $llx=5.9400 $lly=0.0000 $urx=5.9400 $ury=0.0000 $lvl=2
*|S (VSS!:5 5.0800 0.0000) // $llx=5.0800 $lly=0.0000 $urx=5.0800 $ury=0.0000 $lvl=2
*|S (VSS!:6 4.2200 0.0000) // $llx=4.2200 $lly=0.0000 $urx=4.2200 $ury=0.0000 $lvl=2
*|S (VSS!:7 3.7000 0.0000) // $llx=3.7000 $lly=0.0000 $urx=3.7000 $ury=0.0000 $lvl=2
*|S (VSS!:8 3.2200 0.0000) // $llx=3.2200 $lly=0.0000 $urx=3.2200 $ury=0.0000 $lvl=2
*|S (VSS!:9 3.2200 0.0000) // $llx=3.2200 $lly=0.0000 $urx=3.2200 $ury=0.0000 $lvl=4
*|S (VSS!:11 2.8400 0.0000) // $llx=2.8400 $lly=0.0000 $urx=2.8400 $ury=0.0000 $lvl=2
*|S (VSS!:12 1.9800 0.0000) // $llx=1.9800 $lly=0.0000 $urx=1.9800 $ury=0.0000 $lvl=2
*|S (VSS!:13 1.1200 0.0000) // $llx=1.1200 $lly=0.0000 $urx=1.1200 $ury=0.0000 $lvl=2
*|S (VSS!:14 0.2600 0.0000) // $llx=0.2600 $lly=0.0000 $urx=0.2600 $ury=0.0000 $lvl=2
*|S (VSS!:15 0.0000 0.0000) // $llx=0.0000 $lly=0.0000 $urx=0.0000 $ury=0.0000 $lvl=2
*|S (VSS!:16 6.4395 0.0000) // $llx=6.4395 $lly=0.0000 $urx=6.4395 $ury=0.0000 $lvl=2
*|S (VSS!:18 5.0800 0.7750) // $llx=5.0800 $lly=0.7750 $urx=5.0800 $ury=0.7750 $lvl=2
*|S (VSS!:19 5.0800 1.1550) // $llx=5.0800 $lly=1.1550 $urx=5.0800 $ury=1.1550 $lvl=2
*|S (VSS!:21 4.2200 0.7750) // $llx=4.2200 $lly=0.7750 $urx=4.2200 $ury=0.7750 $lvl=2
*|S (VSS!:22 4.2200 1.1550) // $llx=4.2200 $lly=1.1550 $urx=4.2200 $ury=1.1550 $lvl=2
*|S (VSS!:24 3.7000 0.7750) // $llx=3.7000 $lly=0.7750 $urx=3.7000 $ury=0.7750 $lvl=2
*|S (VSS!:25 3.7000 1.1550) // $llx=3.7000 $lly=1.1550 $urx=3.7000 $ury=1.1550 $lvl=2
*|S (VSS!:27 2.8400 0.7750) // $llx=2.8400 $lly=0.7750 $urx=2.8400 $ury=0.7750 $lvl=2
*|S (VSS!:28 2.8400 1.1550) // $llx=2.8400 $lly=1.1550 $urx=2.8400 $ury=1.1550 $lvl=2
*|S (VSS!:30 1.9800 0.7750) // $llx=1.9800 $lly=0.7750 $urx=1.9800 $ury=0.7750 $lvl=2
*|S (VSS!:31 1.9800 1.1550) // $llx=1.9800 $lly=1.1550 $urx=1.9800 $ury=1.1550 $lvl=2
*|S (VSS!:33 1.1200 0.7750) // $llx=1.1200 $lly=0.7750 $urx=1.1200 $ury=0.7750 $lvl=2
*|S (VSS!:34 1.1200 1.1550) // $llx=1.1200 $lly=1.1550 $urx=1.1200 $ury=1.1550 $lvl=2
*|S (VSS!:36 0.2600 0.7750) // $llx=0.2600 $lly=0.7750 $urx=0.2600 $ury=0.7750 $lvl=2
*|S (VSS!:37 0.2600 1.1550) // $llx=0.2600 $lly=1.1550 $urx=0.2600 $ury=1.1550 $lvl=2
*|S (VSS!:38 6.4400 0.0000) // $llx=6.4400 $lly=0.0000 $urx=6.4400 $ury=0.0000 $lvl=1
*|S (VSS!:39 3.2200 0.0000) // $llx=3.2200 $lly=0.0000 $urx=3.2200 $ury=0.0000 $lvl=1
*|S (VSS!:40 0.0000 0.0000) // $llx=0.0000 $lly=0.0000 $urx=0.0000 $ury=0.0000 $lvl=1
ReF161 VSS!:38 VSS! 0.504687 $metal1  $L=1.615 $W=0.400000 $SI_W=0.4 $TYPE=10 $DIR=0 $LLX=4.825000 $LLY=-0.199500 $URX=6.440000 $URY=0.200000 $lvl=1
ReF162 VSS! VSS!:39 0.501562 $metal1  $L=1.605 $W=0.400000 $SI_W=0.4 $TYPE=10 $DIR=0 $LLX=3.220000 $LLY=-0.199500 $URX=4.825000 $URY=0.200000 $lvl=1
ReF163 VSS!:39 VSS!:40 1.006250 $metal1  $L=3.22 $W=0.400000 $SI_W=0.4 $TYPE=10 $DIR=0 $LLX=0.000000 $LLY=-0.199500 $URX=3.220000 $URY=0.200000 $lvl=1
RfF164 VSS!:1 VSS!:3 28.611765 $li  $L=0.38 $W=0.170000 $SI_W=0.17 $TYPE=10 $DIR=1 $LLX=5.855000 $LLY=0.775000 $URX=6.025000 $URY=1.155000 $lvl=2
RfF165 VSS!:3 VSS!:4 55.328377 $li  $L=0.77475 $W=0.170000 $SI_W=0.17 $TYPE=10 $DIR=1 $LLX=5.855000 $LLY=0.000000 $URX=6.025000 $URY=0.775000 $lvl=2
RfF166 VSS!:4 VSS!:5 44.031998 $li  $L=0.86 $W=0.250000 $SI_W=0.25 $TYPE=10 $DIR=0 $LLX=5.080000 $LLY=-0.124500 $URX=5.940000 $URY=0.125000 $lvl=2
RfF167 VSS!:5 VSS!:6 44.031998 $li  $L=0.86 $W=0.250000 $SI_W=0.25 $TYPE=10 $DIR=0 $LLX=4.220000 $LLY=-0.124500 $URX=5.080000 $URY=0.125000 $lvl=2
RfF168 VSS!:6 VSS!:7 26.623999 $li  $L=0.52 $W=0.250000 $SI_W=0.25 $TYPE=10 $DIR=0 $LLX=3.700000 $LLY=-0.124500 $URX=4.220000 $URY=0.125000 $lvl=2
RfF169 VSS!:7 VSS!:8 24.588800 $li  $L=0.48025 $W=0.250000 $SI_W=0.25 $TYPE=10 $DIR=0 $LLX=3.220000 $LLY=-0.124500 $URX=3.700000 $URY=0.125000 $lvl=2
RfF170 VSS!:8 VSS!:11 19.443199 $li  $L=0.37975 $W=0.250000 $SI_W=0.25 $TYPE=10 $DIR=0 $LLX=2.840000 $LLY=-0.124500 $URX=3.220000 $URY=0.125000 $lvl=2
RfF171 VSS!:11 VSS!:12 44.031998 $li  $L=0.86 $W=0.250000 $SI_W=0.25 $TYPE=10 $DIR=0 $LLX=1.980000 $LLY=-0.124500 $URX=2.840000 $URY=0.125000 $lvl=2
RfF172 VSS!:12 VSS!:13 44.031998 $li  $L=0.86 $W=0.250000 $SI_W=0.25 $TYPE=10 $DIR=0 $LLX=1.120000 $LLY=-0.124500 $URX=1.980000 $URY=0.125000 $lvl=2
RfF173 VSS!:13 VSS!:14 44.031998 $li  $L=0.86 $W=0.250000 $SI_W=0.25 $TYPE=10 $DIR=0 $LLX=0.260000 $LLY=-0.124500 $URX=1.120000 $URY=0.125000 $lvl=2
RfF174 VSS!:14 VSS!:15 13.324800 $li  $L=0.26025 $W=0.250000 $SI_W=0.25 $TYPE=10 $DIR=0 $LLX=0.000000 $LLY=-0.124500 $URX=0.260000 $URY=0.125000 $lvl=2
RfF175 VSS!:4 VSS!:16 25.561600 $li  $L=0.49925 $W=0.250000 $SI_W=0.25 $TYPE=10 $DIR=0 $LLX=5.940000 $LLY=-0.124500 $URX=6.439000 $URY=0.125000 $lvl=2
RfF176 VSS!:5 VSS!:18 55.328377 $li  $L=0.77475 $W=0.170000 $SI_W=0.17 $TYPE=10 $DIR=1 $LLX=4.995000 $LLY=0.000000 $URX=5.165000 $URY=0.775000 $lvl=2
RfF177 VSS!:18 VSS!:19 28.611765 $li  $L=0.38 $W=0.170000 $SI_W=0.17 $TYPE=10 $DIR=1 $LLX=4.995000 $LLY=0.775000 $URX=5.165000 $URY=1.155000 $lvl=2
RfF178 VSS!:6 VSS!:21 55.328377 $li  $L=0.77475 $W=0.170000 $SI_W=0.17 $TYPE=10 $DIR=1 $LLX=4.135000 $LLY=0.000000 $URX=4.305000 $URY=0.775000 $lvl=2
RfF179 VSS!:21 VSS!:22 28.611765 $li  $L=0.38 $W=0.170000 $SI_W=0.17 $TYPE=10 $DIR=1 $LLX=4.135000 $LLY=0.775000 $URX=4.305000 $URY=1.155000 $lvl=2
RfF180 VSS!:7 VSS!:24 55.328377 $li  $L=0.77475 $W=0.170000 $SI_W=0.17 $TYPE=10 $DIR=1 $LLX=3.615000 $LLY=0.000000 $URX=3.785000 $URY=0.775000 $lvl=2
RfF181 VSS!:24 VSS!:25 28.611765 $li  $L=0.38 $W=0.170000 $SI_W=0.17 $TYPE=10 $DIR=1 $LLX=3.615000 $LLY=0.775000 $URX=3.785000 $URY=1.155000 $lvl=2
RfF182 VSS!:11 VSS!:27 55.328377 $li  $L=0.77475 $W=0.170000 $SI_W=0.17 $TYPE=10 $DIR=1 $LLX=2.755000 $LLY=0.000000 $URX=2.925000 $URY=0.775000 $lvl=2
RfF183 VSS!:27 VSS!:28 28.611765 $li  $L=0.38 $W=0.170000 $SI_W=0.17 $TYPE=10 $DIR=1 $LLX=2.755000 $LLY=0.775000 $URX=2.925000 $URY=1.155000 $lvl=2