*
*|DSPF 1.5
*
*|DATE "Wed Jan  8 20:22:37 2025"
*|VENDOR "Cadence Design Systems"
*|PROGRAM "Cadence Quantus Extraction"
*|VERSION "22.1.0-p089 Linux 64 bit - (Thu Jan 19 11:47:08 PST 2023)"
*|DESIGN NOR4X4_HS
*|DIVIDER /
*|DELIMITER :
*|DeviceFingerDelim "@"
*|BUSBIT []
*|GLOBAL_TEMPERATURE 25
*|OPERATING_TEMPERATURE 25

** *VIA_COVERAGE_CODES
** *index FF FS FP FU SF SS SP SU PF PS PP PU UF US UP UU X_by_Y
** * "FF" stands for Full landing and Full coverage
** *0 0 0 0 0 0 0 0 0 0 0 0 0 0 0 0 0
** *1 0 0 0 0 0 0 0 0 0 0 0 0 0 0 0 1 1x1
** *2 0 0 0 0 0 0 0 0 0 0 0 0 0 0 1 0 1x1
** *3 0 0 0 0 0 0 0 0 0 0 0 0 0 1 0 0 1x1
** *4 0 0 0 0 0 0 0 0 0 0 0 0 1 0 0 0 1x1
** *5 0 0 0 0 0 0 0 0 0 0 0 1 0 0 0 0 1x1
** *6 0 0 0 0 0 0 0 0 0 0 1 0 0 0 0 0 1x1
** *7 0 0 0 0 0 0 0 0 0 1 0 0 0 0 0 0 1x1
** *8 0 0 0 0 0 0 0 0 1 0 0 0 0 0 0 0 1x1
** *9 0 0 0 0 0 0 0 1 0 0 0 0 0 0 0 0 1x1
** *10 0 0 0 0 0 0 1 0 0 0 0 0 0 0 0 0 1x1
** *11 0 0 0 0 0 1 0 0 0 0 0 0 0 0 0 0 1x1
** *12 0 0 0 0 1 0 0 0 0 0 0 0 0 0 0 0 1x1
** *13 0 0 0 1 0 0 0 0 0 0 0 0 0 0 0 0 1x1
** *14 0 0 1 0 0 0 0 0 0 0 0 0 0 0 0 0 1x1
** *15 0 1 0 0 0 0 0 0 0 0 0 0 0 0 0 0 1x1
** *16 1 0 0 0 0 0 0 0 0 0 0 0 0 0 0 0 1x1

** *RESISTOR_TYPES
** *1 SHORTING_ELEMENT
** *2 PRES_NG
** *3 PRES_PG
** *4 PRES_NF
** *5 PRES_PF
** *6 TCN_NDIFF
** *7 TCN_PDIFF
** *8 TCN_NFIELD
** *9 TCN_PFIELD
** *10 QUALITY_EXTRACTED
** *11 GCNLAND
** *12 TCNLAND
** *13 DUMMY
** *14 RSD
** *15 BRIDGE

** *RESISTOR_CURRENT_DIRECTION
** *0 HORIZONTAL
** *1 VERTICAL
** *2 45 DEGREE

** QRC_TECH_DIR /vols/wfo_devel/projects/reference_SKY130/tech/sky130_release_0.0.4/quantus/extraction/typical 
** HIERARCHICAL_SPLIT_PINS_DELIMITER '%'
** caps2d version: 10
*
.SUBCKT  NOR4X4_HS A B C D Y
*
*Net Section
*
*|GROUND_NET VSS!
*
*LAYER_MAP
*0 none
*1 metal1
*2 li
*3 poly
*4 diff
*5 licon_diff
*6 mcon
*7 licon
*8 FOX

*|NET n2 4.78639e-15
*|I (Mmp2@1:d Mmp2@1 d X 0 4.3595 3.0150) // $llx=4.3595 $lly=3.0150 $urx=4.3595 $ury=3.0150 $lvl=4
*|I (Mmp2@2:d Mmp2@2 d X 0 4.9405 3.0150) // $llx=4.9405 $lly=3.0150 $urx=4.9405 $ury=3.0150 $lvl=4
*|I (Mmp2:d Mmp2 d X 0 5.2195 3.0150) // $llx=5.2195 $lly=3.0150 $urx=5.2195 $ury=3.0150 $lvl=4
*|I (Mmp2@3:d Mmp2@3 d X 0 5.8005 3.0150) // $llx=5.8005 $lly=3.0150 $urx=5.8005 $ury=3.0150 $lvl=4
*|I (Mmp3@2:s Mmp3@2 s X 0 6.0795 3.0150) // $llx=6.0795 $lly=3.0150 $urx=6.0795 $ury=3.0150 $lvl=4
*|I (Mmp3:s Mmp3 s X 0 6.6605 3.0150) // $llx=6.6605 $lly=3.0150 $urx=6.6605 $ury=3.0150 $lvl=4
*|I (Mmp3@3:s Mmp3@3 s X 0 6.9395 3.0150) // $llx=6.9395 $lly=3.0150 $urx=6.9395 $ury=3.0150 $lvl=4
*|I (Mmp3@1:s Mmp3@1 s X 0 7.5205 3.0150) // $llx=7.5205 $lly=3.0150 $urx=7.5205 $ury=3.0150 $lvl=4
*|S (n2 4.2200 3.7450) // $llx=4.2200 $lly=3.7450 $urx=4.2200 $ury=3.7450 $lvl=2
*|S (n2:3 4.2200 3.0150) // $llx=4.2200 $lly=3.0150 $urx=4.2200 $ury=3.0150 $lvl=2
*|S (n2:4 4.2200 2.9800) // $llx=4.2200 $lly=2.9800 $urx=4.2200 $ury=2.9800 $lvl=2
*|S (n2:5 4.2200 2.2850) // $llx=4.2200 $lly=2.2850 $urx=4.2200 $ury=2.2850 $lvl=2
*|S (n2:6 5.0800 3.7450) // $llx=5.0800 $lly=3.7450 $urx=5.0800 $ury=3.7450 $lvl=2
*|S (n2:8 5.0800 3.0150) // $llx=5.0800 $lly=3.0150 $urx=5.0800 $ury=3.0150 $lvl=2
*|S (n2:9 5.0800 2.9800) // $llx=5.0800 $lly=2.9800 $urx=5.0800 $ury=2.9800 $lvl=2
*|S (n2:10 5.0800 2.2850) // $llx=5.0800 $lly=2.2850 $urx=5.0800 $ury=2.2850 $lvl=2
*|S (n2:11 5.9400 3.7450) // $llx=5.9400 $lly=3.7450 $urx=5.9400 $ury=3.7450 $lvl=2
*|S (n2:13 5.9400 3.0150) // $llx=5.9400 $lly=3.0150 $urx=5.9400 $ury=3.0150 $lvl=2
*|S (n2:14 5.9400 2.8000) // $llx=5.9400 $lly=2.8000 $urx=5.9400 $ury=2.8000 $lvl=2
*|S (n2:15 6.8000 3.7450) // $llx=6.8000 $lly=3.7450 $urx=6.8000 $ury=3.7450 $lvl=2
*|S (n2:17 6.8000 3.0150) // $llx=6.8000 $lly=3.0150 $urx=6.8000 $ury=3.0150 $lvl=2
*|S (n2:18 6.8000 2.8000) // $llx=6.8000 $lly=2.8000 $urx=6.8000 $ury=2.8000 $lvl=2
*|S (n2:19 7.6600 3.7450) // $llx=7.6600 $lly=3.7450 $urx=7.6600 $ury=3.7450 $lvl=2
*|S (n2:20 7.6600 3.1900) // $llx=7.6600 $lly=3.1900 $urx=7.6600 $ury=3.1900 $lvl=2
*|S (n2:22 7.6600 3.0150) // $llx=7.6600 $lly=3.0150 $urx=7.6600 $ury=3.0150 $lvl=2
*|S (n2:23 7.6600 2.2850) // $llx=7.6600 $lly=2.2850 $urx=7.6600 $ury=2.2850 $lvl=2
*|S (n2:24 4.2200 2.6550) // $llx=4.2200 $lly=2.6550 $urx=4.2200 $ury=2.6550 $lvl=1
*|S (n2:25 4.2200 2.9800) // $llx=4.2200 $lly=2.9800 $urx=4.2200 $ury=2.9800 $lvl=1
*|S (n2:26 4.2200 3.4200) // $llx=4.2200 $lly=3.4200 $urx=4.2200 $ury=3.4200 $lvl=1
*|S (n2:27 5.0800 3.4200) // $llx=5.0800 $lly=3.4200 $urx=5.0800 $ury=3.4200 $lvl=1
*|S (n2:28 5.0800 2.9800) // $llx=5.0800 $lly=2.9800 $urx=5.0800 $ury=2.9800 $lvl=1
*|S (n2:29 5.0800 2.6550) // $llx=5.0800 $lly=2.6550 $urx=5.0800 $ury=2.6550 $lvl=1
*|S (n2:30 5.9400 3.4200) // $llx=5.9400 $lly=3.4200 $urx=5.9400 $ury=3.4200 $lvl=1
*|S (n2:31 5.9400 2.8000) // $llx=5.9400 $lly=2.8000 $urx=5.9400 $ury=2.8000 $lvl=1
*|S (n2:32 5.9400 2.2950) // $llx=5.9400 $lly=2.2950 $urx=5.9400 $ury=2.2950 $lvl=1
*|S (n2:33 6.8000 3.4200) // $llx=6.8000 $lly=3.4200 $urx=6.8000 $ury=3.4200 $lvl=1
*|S (n2:34 6.8000 2.8000) // $llx=6.8000 $lly=2.8000 $urx=6.8000 $ury=2.8000 $lvl=1
*|S (n2:35 6.8000 2.2950) // $llx=6.8000 $lly=2.2950 $urx=6.8000 $ury=2.2950 $lvl=1
*|S (n2:36 7.6600 3.4200) // $llx=7.6600 $lly=3.4200 $urx=7.6600 $ury=3.4200 $lvl=1
*|S (n2:37 7.6600 3.1900) // $llx=7.6600 $lly=3.1900 $urx=7.6600 $ury=3.1900 $lvl=1
*|S (n2:38 7.6600 3.0450) // $llx=7.6600 $lly=3.0450 $urx=7.6600 $ury=3.0450 $lvl=1
CH1 Mmp3@1:s VSS! 3.42717e-18 $lvl=4
CH2 Mmp3:s VSS! 2.51842e-18 $lvl=4
CH3 Mmp2@3:d VSS! 1.11405e-18 $lvl=4
CH4 Mmp2@2:d VSS! 3.36119e-18 $lvl=4
CH5 Mmp2@1:d VSS! 3.09457e-18 $lvl=4
CH6 n2:34 VSS! 7.55078e-18 $lvl=1
CH7 n2:28 VSS! 5.62585e-18 $lvl=1
CH8 n2:25 VSS! 6.97607e-18 $lvl=1
CH9 n2:24 VSS! 5.50749e-18 $lvl=1
CH10 n2:32 VSS! 1.09353e-17 $lvl=1
CH11 n2:36 VSS! 9.16145e-18 $lvl=1
CH12 n2:33 VSS! 5.55749e-18 $lvl=1
CH13 n2:30 VSS! 6.58128e-18 $lvl=1
CH14 n2:27 VSS! 6.33448e-18 $lvl=1
CH15 n2:26 VSS! 6.92603e-18 $lvl=1
CH16 n2:19 VSS! 1.23682e-17 $lvl=2
CH17 n2:23 VSS! 6.53861e-18 $lvl=2
CH18 n2:15 VSS! 6.35904e-18 $lvl=2
CH19 n2:11 VSS! 6.83307e-18 $lvl=2
CH20 n2:6 VSS! 4.98889e-18 $lvl=2
CH21 n2:10 VSS! 4.3413e-18 $lvl=2
CH22 n2:5 VSS! 1.03848e-17 $lvl=2
CH23 n2:4 VSS! 3.93031e-18 $lvl=2
CH24 n2:9 VSS! 5.57096e-19 $lvl=2
CH25 n2:14 VSS! 2.88187e-18 $lvl=2
CH26 n2:18 VSS! 2.75564e-18 $lvl=2
CH27 n2:20 VSS! 2.80341e-18 $lvl=2
CH28 n2 VSS! 1.15209e-17 $lvl=2
CH29 n2 Mmp1@1:s 7.96554e-18 $lvl1=2 $lvl2=4
CH30 Mmp2@1:d n0:20 6.27971e-18 $lvl1=4 $lvl2=2
CH31 n2:4 n0:21 5.6577e-18 $lvl1=2 $lvl2=2
CH32 n2:25 n0:21 4.38669e-18 $lvl1=1 $lvl2=2
CH33 n2:5 n0:20 3.40303e-18 $lvl1=2 $lvl2=2
CH34 n2 n0:22 3.31526e-18 $lvl1=2 $lvl2=2
CH35 n2 n0:21 3.10209e-18 $lvl1=2 $lvl2=2
CH36 n2:26 n0:20 2.99716e-18 $lvl1=1 $lvl2=2
CH37 n2:4 n0:20 2.90524e-18 $lvl1=2 $lvl2=2
CH38 n2 n0:20 8.3214e-17 $lvl1=2 $lvl2=2
CH39 n2:26 n0:23 1.17689e-17 $lvl1=1 $lvl2=1
CH40 n2:25 n0:23 3.03151e-17 $lvl1=1 $lvl2=1
CH41 n2:9 n1:13 8.89602e-18 $lvl1=2 $lvl2=2
CH42 n2:27 n1:12 8.84366e-18 $lvl1=1 $lvl2=2
CH43 n2:10 n1:13 8.03232e-18 $lvl1=2 $lvl2=2
CH44 n2:27 n1:17 7.53684e-18 $lvl1=1 $lvl2=1
CH45 n2:14 n1:16 7.5046e-18 $lvl1=2 $lvl2=2
CH46 n2:27 n1:23 7.39808e-18 $lvl1=1 $lvl2=1
CH47 n2:30 n1:17 6.83267e-18 $lvl1=1 $lvl2=1
CH48 n2:26 n1:23 6.81082e-18 $lvl1=1 $lvl2=1
CH49 n2:9 n1:17 5.70892e-18 $lvl1=2 $lvl2=1
CH50 n2:5 n1:23 5.51504e-18 $lvl1=2 $lvl2=1
CH51 n2 n1:23 5.16909e-18 $lvl1=2 $lvl2=1
CH52 n2:4 n1:23 4.85826e-18 $lvl1=2 $lvl2=1
CH53 n2:25 n1:20 4.73748e-18 $lvl1=1 $lvl2=1
CH54 n2:25 n1:12 4.6595e-18 $lvl1=1 $lvl2=2
CH55 n2:9 n1:23 4.53629e-18 $lvl1=2 $lvl2=1
CH56 n2:9 n1:16 4.22096e-18 $lvl1=2 $lvl2=2
CH57 n2:28 n1:12 4.14182e-18 $lvl1=1 $lvl2=2
CH58 n2:14 n1:17 3.86555e-18 $lvl1=2 $lvl2=1
CH59 n2:6 n1:23 3.28734e-18 $lvl1=2 $lvl2=1
CH60 n2:10 n1:17 3.06298e-18 $lvl1=2 $lvl2=1
CH61 n2:10 n1:23 3.0322e-18 $lvl1=2 $lvl2=1
CH62 n2:32 n1:13 2.83097e-18 $lvl1=1 $lvl2=2
CH63 n2:6 n1:17 2.72244e-18 $lvl1=2 $lvl2=1
CH64 n2:24 n1:20 2.318e-18 $lvl1=1 $lvl2=1
CH65 n2:5 n1:20 2.04473e-18 $lvl1=2 $lvl2=1
CH66 n2:32 n1:16 1.93712e-18 $lvl1=1 $lvl2=2
CH67 n2:6 n1:16 1.73989e-18 $lvl1=2 $lvl2=2
CH68 n2:32 n1:23 1.73485e-18 $lvl1=1 $lvl2=1
CH69 Mmp2@3:d n1:13 1.52675e-18 $lvl1=4 $lvl2=2
CH70 n2:11 n1:17 1.45296e-18 $lvl1=2 $lvl2=1
CH71 n2:28 n1:13 1.39947e-18 $lvl1=1 $lvl2=2
CH72 n2:11 n1:16 1.3925e-18 $lvl1=2 $lvl2=2
CH73 n2 n1:20 1.36313e-18 $lvl1=2 $lvl2=1
CH74 n2:6 n1:13 9.69822e-17 $lvl1=2 $lvl2=2
CH75 n2:14 n1:13 1.15253e-17 $lvl1=2 $lvl2=2
CH76 n2:10 n1:12 1.04579e-17 $lvl1=2 $lvl2=2
CH77 n2:27 n1:13 1.09187e-17 $lvl1=1 $lvl2=2
CH78 n2:11 n1:13 9.96014e-17 $lvl1=2 $lvl2=2
CH79 n2:30 n1:13 1.01094e-17 $lvl1=1 $lvl2=2
CH80 n2:26 n1:12 1.04952e-17 $lvl1=1 $lvl2=2
CH81 n2:5 n1:12 1.01967e-17 $lvl1=2 $lvl2=2
CH82 n2 n1:12 9.85204e-17 $lvl1=2 $lvl2=2
CH83 n2:32 n1:17 6.89176e-17 $lvl1=1 $lvl2=1
CH84 n2:9 n1:12 1.55587e-17 $lvl1=2 $lvl2=2
CH85 n2:6 n1:12 1.02847e-16 $lvl1=2 $lvl2=2
CH86 n2:24 n1:23 3.58412e-17 $lvl1=1 $lvl2=1
CH87 n2:25 n1:23 3.65795e-17 $lvl1=1 $lvl2=1
CH88 n2:28 n1:17 5.09584e-17 $lvl1=1 $lvl2=1
CH89 n2:28 n1:23 5.01726e-17 $lvl1=1 $lvl2=1
CH90 n2:4 n1:12 1.16225e-17 $lvl1=2 $lvl2=2
ReH275 n2:24 n2:25 0.176630 $metal1  $L=0.325 $W=0.230000 $SI_W=0.23 $TYPE=10 $DIR=1 $LLX=4.105000 $LLY=2.655000 $URX=4.335000 $URY=2.980000 $lvl=1
ReH276 n2:25 n2:26 0.239266 $metal1  $L=0.44025 $W=0.230000 $SI_W=0.23 $TYPE=10 $DIR=1 $LLX=4.105000 $LLY=2.980000 $URX=4.335000 $URY=3.420000 $lvl=1
ReH277 n2:26 n2:27 0.467391 $metal1  $L=0.86 $W=0.230000 $SI_W=0.23 $TYPE=10 $DIR=0 $LLX=4.220000 $LLY=3.305000 $URX=5.080000 $URY=3.535000 $lvl=1
ReH278 n2:27 n2:28 0.239266 $metal1  $L=0.44025 $W=0.230000 $SI_W=0.23 $TYPE=10 $DIR=1 $LLX=4.965000 $LLY=2.980000 $URX=5.195000 $URY=3.420000 $lvl=1
ReH279 n2:28 n2:29 0.176630 $metal1  $L=0.325 $W=0.230000 $SI_W=0.23 $TYPE=10 $DIR=1 $LLX=4.965000 $LLY=2.655000 $URX=5.195000 $URY=2.980000 $lvl=1
ReH280 n2:27 n2:30 0.467391 $metal1  $L=0.86 $W=0.230000 $SI_W=0.23 $TYPE=10 $DIR=0 $LLX=5.080000 $LLY=3.305000 $URX=5.940000 $URY=3.535000 $lvl=1
ReH281 n2:30 n2:31 0.337092 $metal1  $L=0.62025 $W=0.230000 $SI_W=0.23 $TYPE=10 $DIR=1 $LLX=5.825000 $LLY=2.800000 $URX=6.055000 $URY=3.420000 $lvl=1
ReH282 n2:31 n2:32 0.274457 $metal1  $L=0.505 $W=0.230000 $SI_W=0.23 $TYPE=10 $DIR=1 $LLX=5.825000 $LLY=2.295000 $URX=6.055000 $URY=2.800000 $lvl=1
ReH283 n2:30 n2:33 0.467391 $metal1  $L=0.86 $W=0.230000 $SI_W=0.23 $TYPE=10 $DIR=0 $LLX=5.940000 $LLY=3.305000 $URX=6.800000 $URY=3.535000 $lvl=1
ReH284 n2:33 n2:34 0.337092 $metal1  $L=0.62025 $W=0.230000 $SI_W=0.23 $TYPE=10 $DIR=1 $LLX=6.685000 $LLY=2.800000 $URX=6.915000 $URY=3.420000 $lvl=1
ReH285 n2:34 n2:35 0.274457 $metal1  $L=0.505 $W=0.230000 $SI_W=0.23 $TYPE=10 $DIR=1 $LLX=6.685000 $LLY=2.295000 $URX=6.915000 $URY=2.800000 $lvl=1
ReH286 n2:33 n2:36 0.467391 $metal1  $L=0.86 $W=0.230000 $SI_W=0.23 $TYPE=10 $DIR=0 $LLX=6.800000 $LLY=3.305000 $URX=7.660000 $URY=3.535000 $lvl=1
ReH287 n2:36 n2:37 0.125136 $metal1  $L=0.23025 $W=0.230000 $SI_W=0.23 $TYPE=10 $DIR=1 $LLX=7.545000 $LLY=3.190000 $URX=7.775000 $URY=3.420000 $lvl=1
ReH288 n2:37 n2:38 0.078804 $metal1  $L=0.145 $W=0.230000 $SI_W=0.23 $TYPE=10 $DIR=1 $LLX=7.545000 $LLY=3.045000 $URX=7.775000 $URY=3.190000 $lvl=1
RfH289 n2 n2:3 54.964703 $li  $L=0.73 $W=0.170000 $SI_W=0.17 $TYPE=10 $DIR=1 $LLX=4.135000 $LLY=3.015000 $URX=4.305000 $URY=3.745000 $lvl=2
RfH290 n2:3 n2:4 0.845283 $li  $L=0.035 $W=0.170000 $SI_W=0.53 $TYPE=10 $DIR=1 $LLX=4.135000 $LLY=2.980000 $URX=4.305000 $URY=3.015000 $lvl=2
RfH291 n2:4 n2:5 52.329414 $li  $L=0.695 $W=0.170000 $SI_W=0.17 $TYPE=10 $DIR=1 $LLX=4.135000 $LLY=2.285000 $URX=4.305000 $URY=2.980000 $lvl=2
RfH292 n2:6 n2:8 54.964703 $li  $L=0.73 $W=0.170000 $SI_W=0.17 $TYPE=10 $DIR=1 $LLX=4.995000 $LLY=3.015000 $URX=5.165000 $URY=3.745000 $lvl=2
RfH293 n2:8 n2:9 0.845283 $li  $L=0.035 $W=0.170000 $SI_W=0.53 $TYPE=10 $DIR=1 $LLX=4.995000 $LLY=2.980000 $URX=5.165000 $URY=3.015000 $lvl=2
RfH294 n2:9 n2:10 52.329414 $li  $L=0.695 $W=0.170000 $SI_W=0.17 $TYPE=10 $DIR=1 $LLX=4.995000 $LLY=2.285000 $URX=5.165000 $URY=2.980000 $lvl=2
RfH295 n2:11 n2:13 54.964703 $li  $L=0.73 $W=0.170000 $SI_W=0.17 $TYPE=10 $DIR=1 $LLX=5.855000 $LLY=3.015000 $URX=6.025000 $URY=3.745000 $lvl=2
RfH296 n2:13 n2:14 3.335757 $li  $L=0.215 $W=0.170000 $SI_W=0.825 $TYPE=10 $DIR=1 $LLX=5.855000 $LLY=2.800000 $URX=6.025000 $URY=3.015000 $lvl=2
RfH297 n2:15 n2:17 54.964703 $li  $L=0.73 $W=0.170000 $SI_W=0.17 $TYPE=10 $DIR=1 $LLX=6.715000 $LLY=3.015000 $URX=6.885000 $URY=3.745000 $lvl=2
RfH298 n2:17 n2:18 3.335757 $li  $L=0.215 $W=0.170000 $SI_W=0.825 $TYPE=10 $DIR=1 $LLX=6.715000 $LLY=2.800000 $URX=6.885000 $URY=3.015000 $lvl=2
RfH299 n2:19 n2:20 41.788235 $li  $L=0.555 $W=0.170000 $SI_W=0.17 $TYPE=10 $DIR=1 $LLX=7.575000 $LLY=3.190000 $URX=7.745000 $URY=3.745000 $lvl=2
RfH300 n2:20 n2:22 13.176471 $li  $L=0.175 $W=0.170000 $SI_W=0.17 $TYPE=10 $DIR=1 $LLX=7.575000 $LLY=3.015000 $URX=7.745000 $URY=3.190000 $lvl=2
RfH301 n2:22 n2:23 54.964703 $li  $L=0.73 $W=0.170000 $SI_W=0.17 $TYPE=10 $DIR=1 $LLX=7.575000 $LLY=2.285000 $URX=7.745000 $URY=3.015000 $lvl=2
Rh_2_H302 Mmp2@1:d n2:3 3.750000 $licon_diff  $A=0.1156 $VC=0 $SAVL=0 $SAVC=0 $SI_A=0.1156 $COVER_DIR=0 $LLX=0.000000 $LLY=0.000000 $URX=-0.115600 $URY=-4.000000 $lvl=5
Rh_2_H303 Mmp2@2:d n2:8 3.750000 $licon_diff  $A=0.1156 $VC=0 $SAVL=0 $SAVC=0 $SI_A=0.1156 $COVER_DIR=0 $LLX=0.000000 $LLY=0.000000 $URX=-0.115600 $URY=-4.000000 $lvl=5
Rh_2_H304 Mmp2@3:d n2:13 3.750000 $licon_diff  $A=0.1156 $VC=0 $SAVL=0 $SAVC=0 $SI_A=0.1156 $COVER_DIR=0 $LLX=0.000000 $LLY=0.000000 $URX=-0.115600 $URY=-4.000000 $lvl=5
Rh_2_H305 Mmp3:s n2:17 3.750000 $licon_diff  $A=0.1156 $VC=0 $SAVL=0 $SAVC=0 $SI_A=0.1156 $COVER_DIR=0 $LLX=0.000000 $LLY=0.000000 $URX=-0.115600 $URY=-4.000000 $lvl=5
Rh_2_H306 Mmp3@1:s n2:22 3.750000 $licon_diff  $A=0.1156 $VC=0 $SAVL=0 $SAVC=0 $SI_A=0.1156 $COVER_DIR=0 $LLX=0.000000 $LLY=0.000000 $URX=-0.115600 $URY=-4.000000 $lvl=5
RjH307 n2:4 n2:25 76.000000 $mcon  $A=0.0578 $VC=0 $SAVL=0 $SAVC=0 $SI_A=0.0578 $COVER_DIR=0 $LLX=0.000000 $LLY=0.000000 $URX=-0.057800 $URY=-2.000000 $lvl=6
RjH308 n2:9 n2:28 76.000000 $mcon  $A=0.0578 $VC=0 $SAVL=0 $SAVC=0 $SI_A=0.0578 $COVER_DIR=0 $LLX=0.000000 $LLY=0.000000 $URX=-0.057800 $URY=-2.000000 $lvl=6
RjH309 n2:14 n2:31 50.666668 $mcon  $A=0.0867 $VC=0 $SAVL=0 $SAVC=0 $SI_A=0.0867 $COVER_DIR=0 $LLX=0.000000 $LLY=0.000000 $URX=-0.086700 $URY=-3.000000 $lvl=6
RjH310 n2:18 n2:34 50.666668 $mcon  $A=0.0867 $VC=0 $SAVL=0 $SAVC=0 $SI_A=0.0867 $COVER_DIR=0 $LLX=0.000000 $LLY=0.000000 $URX=-0.086700 $URY=-3.000000 $lvl=6
RjH311 n2:20 n2:37 152.000000 $mcon  $L=0.17 $W=0.17 $A=0.0289 $VC=0 $SAVL=0 $SAVC=0 $SI_A=0.0289 $COVER_DIR=0 $LLX=0.000000 $LLY=0.000000 $URX=0.170000 $URY=0.170000 $lvl=6
RmwH312 Mmp2:d Mmp2@2:d 0.001000 $diff $W=1000000 $SI_W=1000000 $TYPE=1 $DIR=0
RmwH313 Mmp3@2:s Mmp2@3:d 0.001000 $diff $W=1000000 $SI_W=1000000 $TYPE=1 $DIR=0
RmwH314 Mmp3@3:s Mmp3:s 0.001000 $diff $W=1000000 $SI_W=1000000 $TYPE=1 $DIR=0
*
*|NET Y 7.49264e-15
*|P (Y X 0 7.3750 1.7400) // $llx=7.3750 $lly=1.7400 $urx=7.3750 $ury=1.7400 $lvl=1
*|I (Mmp3@2:d Mmp3@2 d X 0 6.2305 3.0150) // $llx=6.2305 $lly=3.0150 $urx=6.2305 $ury=3.0150 $lvl=4
*|I (Mmp3:d Mmp3 d X 0 6.5095 3.0150) // $llx=6.5095 $lly=3.0150 $urx=6.5095 $ury=3.0150 $lvl=4
*|I (Mmp3@3:d Mmp3@3 d X 0 7.0905 3.0150) // $llx=7.0905 $lly=3.0150 $urx=7.0905 $ury=3.0150 $lvl=4
*|I (Mmp3@1:d Mmp3@1 d X 0 7.3695 3.0150) // $llx=7.3695 $lly=3.0150 $urx=7.3695 $ury=3.0150 $lvl=4
*|I (Mmn2@1:d Mmn2@1 d X 0 4.5105 0.7750) // $llx=4.5105 $lly=0.7750 $urx=4.5105 $ury=0.7750 $lvl=4
*|I (Mmn2@2:d Mmn2@2 d X 0 4.7895 0.7750) // $llx=4.7895 $lly=0.7750 $urx=4.7895 $ury=0.7750 $lvl=4
*|I (Mmn2:d Mmn2 d X 0 5.3705 0.7750) // $llx=5.3705 $lly=0.7750 $urx=5.3705 $ury=0.7750 $lvl=4
*|I (Mmn2@3:d Mmn2@3 d X 0 5.6495 0.7750) // $llx=5.6495 $lly=0.7750 $urx=5.6495 $ury=0.7750 $lvl=4
*|I (Mmn0@1:d Mmn0@1 d X 0 0.5505 0.7750) // $llx=0.5505 $lly=0.7750 $urx=0.5505 $ury=0.7750 $lvl=4
*|I (Mmn0@3:d Mmn0@3 d X 0 0.8295 0.7750) // $llx=0.8295 $lly=0.7750 $urx=0.8295 $ury=0.7750 $lvl=4
*|I (Mmn0:d Mmn0 d X 0 1.4105 0.7750) // $llx=1.4105 $lly=0.7750 $urx=1.4105 $ury=0.7750 $lvl=4
*|I (Mmn0@2:d Mmn0@2 d X 0 1.6895 0.7750) // $llx=1.6895 $lly=0.7750 $urx=1.6895 $ury=0.7750 $lvl=4
*|I (Mmn3@2:d Mmn3@2 d X 0 6.2305 0.7750) // $llx=6.2305 $lly=0.7750 $urx=6.2305 $ury=0.7750 $lvl=4
*|I (Mmn3:d Mmn3 d X 0 6.5095 0.7750) // $llx=6.5095 $lly=0.7750 $urx=6.5095 $ury=0.7750 $lvl=4
*|I (Mmn3@3:d Mmn3@3 d X 0 7.0905 0.7750) // $llx=7.0905 $lly=0.7750 $urx=7.0905 $ury=0.7750 $lvl=4
*|I (Mmn3@1:d Mmn3@1 d X 0 7.3695 0.7750) // $llx=7.3695 $lly=0.7750 $urx=7.3695 $ury=0.7750 $lvl=4
*|I (Mmn1@3:d Mmn1@3 d X 0 2.2705 0.7750) // $llx=2.2705 $lly=0.7750 $urx=2.2705 $ury=0.7750 $lvl=4
*|I (Mmn1:d Mmn1 d X 0 2.5495 0.7750) // $llx=2.5495 $lly=0.7750 $urx=2.5495 $ury=0.7750 $lvl=4
*|I (Mmn1@2:d Mmn1@2 d X 0 3.1305 0.7750) // $llx=3.1305 $lly=0.7750 $urx=3.1305 $ury=0.7750 $lvl=4
*|I (Mmn1@1:d Mmn1@1 d X 0 3.4095 0.7750) // $llx=3.4095 $lly=0.7750 $urx=3.4095 $ury=0.7750 $lvl=4
*|S (Y:1 0.6900 1.1550) // $llx=0.6900 $lly=1.1550 $urx=0.6900 $ury=1.1550 $lvl=2
*|S (Y:3 0.6900 0.7750) // $llx=0.6900 $lly=0.7750 $urx=0.6900 $ury=0.7750 $lvl=2
*|S (Y:4 0.6900 0.5600) // $llx=0.6900 $lly=0.5600 $urx=0.6900 $ury=0.5600 $lvl=2
*|S (Y:5 1.5500 1.1550) // $llx=1.5500 $lly=1.1550 $urx=1.5500 $ury=1.1550 $lvl=2
*|S (Y:7 1.5500 0.7750) // $llx=1.5500 $lly=0.7750 $urx=1.5500 $ury=0.7750 $lvl=2
*|S (Y:8 1.5500 0.5600) // $llx=1.5500 $lly=0.5600 $urx=1.5500 $ury=0.5600 $lvl=2
*|S (Y:9 2.4100 1.1550) // $llx=2.4100 $lly=1.1550 $urx=2.4100 $ury=1.1550 $lvl=2
*|S (Y:11 2.4100 0.7750) // $llx=2.4100 $lly=0.7750 $urx=2.4100 $ury=0.7750 $lvl=2
*|S (Y:12 2.4100 0.5600) // $llx=2.4100 $lly=0.5600 $urx=2.4100 $ury=0.5600 $lvl=2
*|S (Y:13 3.2700 1.1550) // $llx=3.2700 $lly=1.1550 $urx=3.2700 $ury=1.1550 $lvl=2
*|S (Y:15 3.2700 0.7750) // $llx=3.2700 $lly=0.7750 $urx=3.2700 $ury=0.7750 $lvl=2
*|S (Y:16 3.2700 0.5600) // $llx=3.2700 $lly=0.5600 $urx=3.2700 $ury=0.5600 $lvl=2
*|S (Y:17 4.6500 1.1550) // $llx=4.6500 $lly=1.1550 $urx=4.6500 $ury=1.1550 $lvl=2
*|S (Y:19 4.6500 0.7750) // $llx=4.6500 $lly=0.7750 $urx=4.6500 $ury=0.7750 $lvl=2
*|S (Y:20 4.6500 0.5600) // $llx=4.6500 $lly=0.5600 $urx=4.6500 $ury=0.5600 $lvl=2
*|S (Y:21 5.5100 1.1550) // $llx=5.5100 $lly=1.1550 $urx=5.5100 $ury=1.1550 $lvl=2
*|S (Y:23 5.5100 0.7750) // $llx=5.5100 $lly=0.7750 $urx=5.5100 $ury=0.7750 $lvl=2
*|S (Y:24 5.5100 0.5600) // $llx=5.5100 $lly=0.5600 $urx=5.5100 $ury=0.5600 $lvl=2
*|S (Y:25 6.3700 3.7450) // $llx=6.3700 $lly=3.7450 $urx=6.3700 $ury=3.7450 $lvl=2
*|S (Y:27 6.3700 3.0150) // $llx=6.3700 $lly=3.0150 $urx=6.3700 $ury=3.0150 $lvl=2
*|S (Y:28 6.3700 2.5700) // $llx=6.3700 $lly=2.5700 $urx=6.3700 $ury=2.5700 $lvl=2
*|S (Y:29 6.3700 1.1550) // $llx=6.3700 $lly=1.1550 $urx=6.3700 $ury=1.1550 $lvl=2
*|S (Y:31 6.3700 0.7750) // $llx=6.3700 $lly=0.7750 $urx=6.3700 $ury=0.7750 $lvl=2
*|S (Y:32 6.3700 0.7700) // $llx=6.3700 $lly=0.7700 $urx=6.3700 $ury=0.7700 $lvl=2
*|S (Y:33 6.3700 0.3950) // $llx=6.3700 $lly=0.3950 $urx=6.3700 $ury=0.3950 $lvl=2
*|S (Y:34 7.2300 3.7450) // $llx=7.2300 $lly=3.7450 $urx=7.2300 $ury=3.7450 $lvl=2
*|S (Y:36 7.2300 3.0150) // $llx=7.2300 $lly=3.0150 $urx=7.2300 $ury=3.0150 $lvl=2
*|S (Y:37 7.2300 2.8400) // $llx=7.2300 $lly=2.8400 $urx=7.2300 $ury=2.8400 $lvl=2
*|S (Y:38 7.2300 2.2850) // $llx=7.2300 $lly=2.2850 $urx=7.2300 $ury=2.2850 $lvl=2
*|S (Y:39 7.2300 1.1550) // $llx=7.2300 $lly=1.1550 $urx=7.2300 $ury=1.1550 $lvl=2
*|S (Y:41 7.2300 0.7750) // $llx=7.2300 $lly=0.7750 $urx=7.2300 $ury=0.7750 $lvl=2
*|S (Y:42 7.2300 0.5600) // $llx=7.2300 $lly=0.5600 $urx=7.2300 $ury=0.5600 $lvl=2
*|S (Y:43 7.2950 2.5150) // $llx=7.2950 $lly=2.5150 $urx=7.2950 $ury=2.5150 $lvl=1
*|S (Y:44 7.2950 2.7750) // $llx=7.2950 $lly=2.7750 $urx=7.2950 $ury=2.7750 $lvl=1
*|S (Y:45 7.2300 2.8400) // $llx=7.2300 $lly=2.8400 $urx=7.2300 $ury=2.8400 $lvl=1
*|S (Y:46 7.3600 0.5600) // $llx=7.3600 $lly=0.5600 $urx=7.3600 $ury=0.5600 $lvl=1
*|S (Y:48 6.3700 0.7700) // $llx=6.3700 $lly=0.7700 $urx=6.3700 $ury=0.7700 $lvl=1
*|S (Y:49 5.5100 0.5600) // $llx=5.5100 $lly=0.5600 $urx=5.5100 $ury=0.5600 $lvl=1
*|S (Y:50 4.6500 0.5600) // $llx=4.6500 $lly=0.5600 $urx=4.6500 $ury=0.5600 $lvl=1
*|S (Y:51 3.2700 0.5600) // $llx=3.2700 $lly=0.5600 $urx=3.2700 $ury=0.5600 $lvl=1
*|S (Y:52 2.4100 0.5600) // $llx=2.4100 $lly=0.5600 $urx=2.4100 $ury=0.5600 $lvl=1
*|S (Y:53 1.5500 0.5600) // $llx=1.5500 $lly=0.5600 $urx=1.5500 $ury=0.5600 $lvl=1
*|S (Y:54 0.6900 0.5600) // $llx=0.6900 $lly=0.5600 $urx=0.6900 $ury=0.5600 $lvl=1
*|S (Y:55 7.2300 3.1645) // $llx=7.2300 $lly=3.1645 $urx=7.2300 $ury=3.1645 $lvl=1
*|S (Y:56 6.3700 2.5700) // $llx=6.3700 $lly=2.5700 $urx=6.3700 $ury=2.5700 $lvl=1
*|S (Y:57 6.3700 2.8950) // $llx=6.3700 $lly=2.8950 $urx=6.3700 $ury=2.8950 $lvl=1
CE1 Mmn1@2:d VSS! 3.23948e-19 $lvl=4
CE2 Mmn1@3:d VSS! 2.07835e-18 $lvl=4
CE3 Mmn3@3:d VSS! 5.37666e-19 $lvl=4
CE4 Mmn3@2:d VSS! 5.14113e-19 $lvl=4
CE5 Mmn0:d VSS! 2.1689e-18 $lvl=4
CE6 Mmn0@1:d VSS! 3.66276e-18 $lvl=4
CE7 Mmn2:d VSS! 3.77937e-19 $lvl=4
CE8 Mmn2@1:d VSS! 1.72796e-18 $lvl=4
CE9 Mmp3@3:d VSS! 1.60803e-18 $lvl=4
CE10 Mmp3@2:d VSS! 1.87097e-18 $lvl=4
CE11 Y:54 VSS! 7.86269e-18 $lvl=1
CE12 Y:53 VSS! 9.63575e-18 $lvl=1
CE13 Y:52 VSS! 1.10568e-17 $lvl=1
CE14 Y:51 VSS! 1.32074e-17 $lvl=1
CE15 Y:50 VSS! 1.20226e-17 $lvl=1
CE16 Y:49 VSS! 1.08444e-17 $lvl=1
CE17 Y:43 VSS! 1.18108e-17 $lvl=1
CE18 Y:57 VSS! 1.38323e-17 $lvl=1
CE19 Y:55 VSS! 3.8189e-18 $lvl=1
CE20 Y:46 VSS! 8.29461e-18 $lvl=1
CE21 Y:39 VSS! 4.20606e-18 $lvl=2
CE22 Y:34 VSS! 6.59844e-18 $lvl=2
CE23 Y:38 VSS! 2.73579e-18 $lvl=2
CE24 Y:29 VSS! 6.31132e-18 $lvl=2
CE25 Y:33 VSS! 8.93276e-19 $lvl=2
CE26 Y:25 VSS! 8.48312e-18 $lvl=2
CE27 Y:21 VSS! 5.92635e-18 $lvl=2
CE28 Y:13 VSS! 1.4355e-17 $lvl=2
CE29 Y:9 VSS! 8.94723e-18 $lvl=2
CE30 Y:5 VSS! 9.69663e-18 $lvl=2
CE31 Y:1 VSS! 6.70418e-18 $lvl=2
CE32 Y:4 VSS! 1.88066e-18 $lvl=2
CE33 Y:8 VSS! 1.90853e-18 $lvl=2
CE34 Y:12 VSS! 6.00791e-19 $lvl=2
CE35 Y:16 VSS! 1.45095e-18 $lvl=2
CE36 Y:20 VSS! 5.00589e-18 $lvl=2
CE37 Y:24 VSS! 1.25816e-18 $lvl=2
CE38 Y:32 VSS! 2.09673e-18 $lvl=2
CE39 Y:28 VSS! 2.37188e-18 $lvl=2
CE40 Y:42 VSS! 6.99603e-19 $lvl=2
CE41 Y:37 VSS! 1.28406e-18 $lvl=2
CE42 Y VSS! 9.54195e-18 $lvl=1
CE43 Y:57 n1:17 6.98818e-18 $lvl1=1 $lvl2=1
CE44 Y:51 n1:20 3.13926e-18 $lvl1=1 $lvl2=1
CE45 Y:57 n1:23 1.78432e-18 $lvl1=1 $lvl2=1
CE46 Y:57 n2:18 9.96073e-18 $lvl1=1 $lvl2=2
CE47 Y:38 n2:15 8.88887e-18 $lvl1=2 $lvl2=2
CE48 Y:34 n2:36 8.83334e-18 $lvl1=2 $lvl2=1
CE49 Y:34 n2:33 8.26872e-18 $lvl1=2 $lvl2=1
CE50 Y:28 n2:18 8.20403e-18 $lvl1=2 $lvl2=2
CE51 Y:43 n2:19 7.78984e-18 $lvl1=1 $lvl2=2
CE52 Y:28 n2:14 7.652e-18 $lvl1=2 $lvl2=2
CE53 Y:43 n2:36 6.80902e-18 $lvl1=1 $lvl2=1
CE54 Y:25 n2:18 6.39411e-18 $lvl1=2 $lvl2=2
CE55 Y:57 n2:33 5.9346e-18 $lvl1=1 $lvl2=1
CE56 Y:57 n2:30 5.843e-18 $lvl1=1 $lvl2=1
CE57 Y:55 n2:18 5.7921e-18 $lvl1=1 $lvl2=2
CE58 Y:43 n2:18 5.57757e-18 $lvl1=1 $lvl2=2
CE59 Y:55 n2:19 5.16097e-18 $lvl1=1 $lvl2=2
CE60 Y:43 n2:23 4.7357e-18 $lvl1=1 $lvl2=2
CE61 Y n2:23 4.70375e-18 $lvl1=1 $lvl2=2
CE62 Y:38 n2:23 4.62632e-18 $lvl1=2 $lvl2=2
CE63 Y:34 n2:18 4.62519e-18 $lvl1=2 $lvl2=2
CE64 Y:37 n2:19 4.43448e-18 $lvl1=2 $lvl2=2
CE65 Y:57 n2:15 3.78739e-18 $lvl1=1 $lvl2=2
CE66 Y:25 n2:14 3.76945e-18 $lvl1=2 $lvl2=2
CE67 Y:37 n2:36 3.59059e-18 $lvl1=2 $lvl2=1
CE68 Y:57 n2:14 3.55797e-18 $lvl1=1 $lvl2=2
CE69 Y:57 n2:11 3.25441e-18 $lvl1=1 $lvl2=2
CE70 Y n2:19 3.02334e-18 $lvl1=1 $lvl2=2
CE71 Y n2:34 2.97842e-18 $lvl1=1 $lvl2=1
CE72 Y:38 n2:19 2.83891e-18 $lvl1=2 $lvl2=2
CE73 Y:37 n2:20 2.78612e-18 $lvl1=2 $lvl2=2
CE74 Y:34 n2:23 2.76194e-18 $lvl1=2 $lvl2=2
CE75 Y:25 n2:32 2.67543e-18 $lvl1=2 $lvl2=1
CE76 Y:37 n2:34 2.55043e-18 $lvl1=2 $lvl2=1
CE77 Y:55 n2:20 2.51771e-18 $lvl1=1 $lvl2=2
CE78 Y n2:36 2.471e-18 $lvl1=1 $lvl2=1
CE79 Y:34 n2:20 2.29261e-18 $lvl1=2 $lvl2=2
CE80 Y:28 n2:32 2.25948e-18 $lvl1=2 $lvl2=1
CE81 Y:28 n2:11 1.98913e-18 $lvl1=2 $lvl2=2
CE82 Y:37 n2:15 1.92352e-18 $lvl1=2 $lvl2=2
CE83 Y:28 n2:15 1.90467e-18 $lvl1=2 $lvl2=2
CE84 Y:37 n2:33 1.83146e-18 $lvl1=2 $lvl2=1
CE85 Y:28 n2:34 1.79187e-18 $lvl1=2 $lvl2=1
CE86 Y:43 n2:15 1.49966e-18 $lvl1=1 $lvl2=2
CE87 Y:25 Mmp3:s 1.30805e-18 $lvl1=2 $lvl2=4
CE88 Y n2:15 1.24876e-18 $lvl1=1 $lvl2=2
CE89 Y:57 n2:36 1.17853e-18 $lvl1=1 $lvl2=1
CE90 Y:38 n2:18 1.12247e-18 $lvl1=2 $lvl2=2
CE91 Y:46 n2:36 1.03143e-18 $lvl1=1 $lvl2=1
CE92 Y:25 n2:34 1.02473e-18 $lvl1=2 $lvl2=1
CE93 Y:49 n2:32 8.43008e-19 $lvl1=1 $lvl2=1
CE94 Y:43 n2:33 7.73143e-19 $lvl1=1 $lvl2=1
CE95 Y:57 n2:28 7.45191e-19 $lvl1=1 $lvl2=1
CE96 Y:55 n2:23 6.20678e-19 $lvl1=1 $lvl2=2
CE97 Y:37 n2:23 6.0052e-19 $lvl1=2 $lvl2=2
CE98 Y:55 n2:30 5.90799e-19 $lvl1=1 $lvl2=1
CE99 Y:57 n2:27 5.59115e-19 $lvl1=1 $lvl2=1
CE100 Y:43 n2:34 2.8127e-17 $lvl1=1 $lvl2=1
CE101 Y:57 n2:34 7.05774e-17 $lvl1=1 $lvl2=1
CE102 Y:25 n2:30 1.06374e-17 $lvl1=2 $lvl2=1
CE103 Y:25 n2:33 1.14611e-17 $lvl1=2 $lvl2=1
CE104 Y:55 n2:33 2.3985e-17 $lvl1=1 $lvl2=1
CE105 Y:34 n2:15 9.08188e-17 $lvl1=2 $lvl2=2
CE106 Y:55 n2:34 4.89232e-17 $lvl1=1 $lvl2=1
CE107 Y:57 n2:32 8.2751e-17 $lvl1=1 $lvl2=1
CE108 Y:37 n2:18 1.03213e-17 $lvl1=2 $lvl2=2
CE109 Y:25 n2:11 1.06155e-16 $lvl1=2 $lvl2=2
CE110 Y:34 n2:19 9.49197e-17 $lvl1=2 $lvl2=2
CE111 Y:55 n2:36 5.45213e-17 $lvl1=1 $lvl2=1
CE112 Y:25 n2:15 9.77781e-17 $lvl1=2 $lvl2=2
CE113 Y:51 VSS!:35 9.87411e-18 $lvl1=1 $lvl2=2
CE114 Y:50 VSS!:27 9.71568e-18 $lvl1=1 $lvl2=2
CE115 Y:52 VSS!:35 9.66914e-18 $lvl1=1 $lvl2=2
CE116 Y:5 VSS!:15 9.58841e-18 $lvl1=2 $lvl2=2
CE117 Y:1 VSS!:16 9.51558e-18 $lvl1=2 $lvl2=2
CE118 Y:8 VSS!:39 9.05878e-18 $lvl1=2 $lvl2=2
CE119 Y:52 VSS!:39 8.92329e-18 $lvl1=1 $lvl2=2
CE120 Y:53 VSS!:42 8.7721e-18 $lvl1=1 $lvl2=2
CE121 Y:8 VSS!:42 8.66055e-18 $lvl1=2 $lvl2=2
CE122 Y:24 VSS!:27 8.47377e-18 $lvl1=2 $lvl2=2
CE123 Y:42 VSS!:1 8.35434e-18 $lvl1=2 $lvl2=2
CE124 Y:46 VSS!:21 8.34789e-18 $lvl1=1 $lvl2=2
CE125 Y:12 VSS!:39 8.22137e-18 $lvl1=2 $lvl2=2
CE126 Y:4 VSS!:42 8.14894e-18 $lvl1=2 $lvl2=2
CE127 Y:12 VSS!:35 8.04665e-18 $lvl1=2 $lvl2=2
CE128 Y:16 VSS!:35 7.97286e-18 $lvl1=2 $lvl2=2
CE129 Y:24 VSS!:24 7.69015e-18 $lvl1=2 $lvl2=2
CE130 Y:16 VSS!:32 7.68175e-18 $lvl1=2 $lvl2=2
CE131 Y:33 VSS!:8 7.56655e-18 $lvl1=2 $lvl2=2
CE132 Y:42 VSS!:21 7.50706e-18 $lvl1=2 $lvl2=2
CE133 Y:53 VSS!:39 7.45662e-18 $lvl1=1 $lvl2=2
CE134 Y:54 VSS!:42 7.20155e-18 $lvl1=1 $lvl2=2
CE135 Y:20 VSS!:9 7.14962e-18 $lvl1=2 $lvl2=2
CE136 Y:54 VSS!:49 6.84413e-18 $lvl1=1 $lvl2=1
CE137 Y:29 VSS!:8 6.83041e-18 $lvl1=2 $lvl2=2
CE138 Y:51 VSS!:30 6.08999e-18 $lvl1=1 $lvl2=2
CE139 Y:46 VSS!:46 5.91966e-18 $lvl1=1 $lvl2=1
CE140 Y:21 VSS!:8 5.8441e-18 $lvl1=2 $lvl2=2
CE141 Y:50 VSS!:32 5.7638e-18 $lvl1=1 $lvl2=2
CE142 Y:54 VSS!:45 5.41614e-18 $lvl1=1 $lvl2=2
CE143 Y:52 VSS!:11 5.21352e-18 $lvl1=1 $lvl2=2
CE144 Y:46 VSS!:7 5.07858e-18 $lvl1=1 $lvl2=2
CE145 Y:16 VSS!:11 5.00107e-18 $lvl1=2 $lvl2=2
CE146 Y:50 VSS!:11 4.91874e-18 $lvl1=1 $lvl2=2
CE147 Y:20 VSS!:11 4.89608e-18 $lvl1=2 $lvl2=2
CE148 Y VSS!:1 4.81101e-18 $lvl1=1 $lvl2=2
CE149 Y:33 VSS!:7 4.59877e-18 $lvl1=2 $lvl2=2
CE150 Y:20 VSS!:48 4.41943e-18 $lvl1=2 $lvl2=1
CE151 Y:12 VSS!:11 3.84959e-18 $lvl1=2 $lvl2=2
CE152 Y:4 VSS!:48 3.836e-18 $lvl1=2 $lvl2=1
CE153 Y:33 VSS!:24 3.79947e-18 $lvl1=2 $lvl2=2
CE154 Y:33 VSS!:21 3.74678e-18 $lvl1=2 $lvl2=2
CE155 Y:49 VSS!:11 3.43323e-18 $lvl1=1 $lvl2=2
CE156 Y:42 VSS!:7 3.40229e-18 $lvl1=2 $lvl2=2
CE157 Y:8 VSS!:48 3.07864e-18 $lvl1=2 $lvl2=1
CE158 Y:49 VSS!:9 2.90864e-18 $lvl1=1 $lvl2=2
CE159 Y:57 VSS!:7 2.87243e-18 $lvl1=1 $lvl2=2
CE160 Y:53 VSS!:15 2.78002e-18 $lvl1=1 $lvl2=2
CE161 Y:54 VSS!:11 2.68888e-18 $lvl1=1 $lvl2=2
CE162 Y:21 VSS!:11 2.65595e-18 $lvl1=2 $lvl2=2
CE163 Y:57 VSS!:47 2.64578e-18 $lvl1=1 $lvl2=1
CE164 Y:12 VSS!:48 2.6344e-18 $lvl1=2 $lvl2=1
CE165 Y:50 VSS!:9 2.40079e-18 $lvl1=1 $lvl2=2
CE166 Y:9 VSS!:5 2.39069e-18 $lvl1=2 $lvl2=4
CE167 Y:29 VSS!:7 2.37012e-18 $lvl1=2 $lvl2=2
CE168 Mmn2:d VSS!:9 2.33101e-18 $lvl1=4 $lvl2=2
CE169 Y:24 VSS!:48 2.30478e-18 $lvl1=2 $lvl2=1
CE170 Y:5 VSS!:11 2.27594e-18 $lvl1=2 $lvl2=2
CE171 Y:16 VSS!:48 2.2607e-18 $lvl1=2 $lvl2=1
CE172 Y:54 VSS!:15 2.16827e-18 $lvl1=1 $lvl2=2
CE173 Y:20 VSS!:32 2.1542e-18 $lvl1=2 $lvl2=2
CE174 Y:53 VSS!:11 2.13822e-18 $lvl1=1 $lvl2=2
CE175 Y:8 VSS!:11 2.11176e-18 $lvl1=2 $lvl2=2
CE176 Y VSS!:46 2.07009e-18 $lvl1=1 $lvl2=1
CE177 Y:49 VSS!:8 2.05446e-18 $lvl1=1 $lvl2=2
CE178 Mmn1@2:d VSS!:11 2.01773e-18 $lvl1=4 $lvl2=2
CE179 Y:24 VSS!:11 1.99549e-18 $lvl1=2 $lvl2=2
CE180 Y:32 VSS!:48 1.98607e-18 $lvl1=2 $lvl2=1
CE181 Mmn1@3:d VSS!:39 1.96392e-18 $lvl1=4 $lvl2=2
CE182 Y:53 VSS!:14 1.95935e-18 $lvl1=1 $lvl2=2
CE183 Y:9 VSS!:48 1.95593e-18 $lvl1=2 $lvl2=1
CE184 Y:8 VSS!:14 1.92904e-18 $lvl1=2 $lvl2=2
CE185 Y VSS!:47 1.92038e-18 $lvl1=1 $lvl2=1
CE186 Y:1 VSS!:11 1.89886e-18 $lvl1=2 $lvl2=2
CE187 Y:4 VSS!:11 1.89551e-18 $lvl1=2 $lvl2=2
CE188 Y:42 VSS!:47 1.87957e-18 $lvl1=2 $lvl2=1
CE189 Y:32 VSS!:8 1.84678e-18 $lvl1=2 $lvl2=2
CE190 Mmn3@2:d VSS!:8 1.82846e-18 $lvl1=4 $lvl2=2
CE191 Y:4 VSS!:16 1.81629e-18 $lvl1=2 $lvl2=2
CE192 Y:46 VSS!:4 1.81042e-18 $lvl1=1 $lvl2=2
CE193 Y:57 VSS!:8 1.80826e-18 $lvl1=1 $lvl2=2
CE194 Y:24 VSS!:9 1.80673e-18 $lvl1=2 $lvl2=2
CE195 Y:57 VSS!:11 1.77662e-18 $lvl1=1 $lvl2=2
CE196 Y:20 VSS!:5 1.75053e-18 $lvl1=2 $lvl2=4
CE197 Y:24 VSS!:8 1.74136e-18 $lvl1=2 $lvl2=2
CE198 Y:33 VSS!:48 1.73985e-18 $lvl1=2 $lvl2=1
CE199 Y:39 VSS!:4 1.72796e-18 $lvl1=2 $lvl2=2
CE200 Y:12 VSS!:14 1.70061e-18 $lvl1=2 $lvl2=2
CE201 Y:50 VSS!:10 1.68346e-18 $lvl1=1 $lvl2=2
CE202 Mmn1@3:d VSS!:14 1.64399e-18 $lvl1=4 $lvl2=2
CE203 Y:32 VSS!:11 1.64027e-18 $lvl1=2 $lvl2=2
CE204 Y:1 VSS!:48 1.53627e-18 $lvl1=2 $lvl2=1
CE205 Y:1 VSS!:5 1.53426e-18 $lvl1=2 $lvl2=4
CE206 Y:46 VSS!:18 1.52351e-18 $lvl1=1 $lvl2=2
CE207 Y:57 VSS!:46 1.50974e-18 $lvl1=1 $lvl2=1
CE208 Y:13 VSS!:30 1.3978e-18 $lvl1=2 $lvl2=2
CE209 Y:54 VSS!:16 1.37828e-18 $lvl1=1 $lvl2=2
CE210 Y:4 VSS!:15 1.3782e-18 $lvl1=2 $lvl2=2