*
*|DSPF 1.5
*
*|DATE "Wed Jan  8 20:25:38 2025"
*|VENDOR "Cadence Design Systems"
*|PROGRAM "Cadence Quantus Extraction"
*|VERSION "22.1.0-p089 Linux 64 bit - (Thu Jan 19 11:47:08 PST 2023)"
*|DESIGN NOR4X2_HS
*|DIVIDER /
*|DELIMITER :
*|DeviceFingerDelim "@"
*|BUSBIT []
*|GLOBAL_TEMPERATURE 25
*|OPERATING_TEMPERATURE 25

** *VIA_COVERAGE_CODES
** *index FF FS FP FU SF SS SP SU PF PS PP PU UF US UP UU X_by_Y
** * "FF" stands for Full landing and Full coverage
** *0 0 0 0 0 0 0 0 0 0 0 0 0 0 0 0 0
** *1 0 0 0 0 0 0 0 0 0 0 0 0 0 0 0 1 1x1
** *2 0 0 0 0 0 0 0 0 0 0 0 0 0 0 1 0 1x1
** *3 0 0 0 0 0 0 0 0 0 0 0 0 0 1 0 0 1x1
** *4 0 0 0 0 0 0 0 0 0 0 0 0 1 0 0 0 1x1
** *5 0 0 0 0 0 0 0 0 0 0 0 1 0 0 0 0 1x1
** *6 0 0 0 0 0 0 0 0 0 0 1 0 0 0 0 0 1x1
** *7 0 0 0 0 0 0 0 0 0 1 0 0 0 0 0 0 1x1
** *8 0 0 0 0 0 0 0 0 1 0 0 0 0 0 0 0 1x1
** *9 0 0 0 0 0 0 0 1 0 0 0 0 0 0 0 0 1x1
** *10 0 0 0 0 0 0 1 0 0 0 0 0 0 0 0 0 1x1
** *11 0 0 0 0 0 1 0 0 0 0 0 0 0 0 0 0 1x1
** *12 0 0 0 0 1 0 0 0 0 0 0 0 0 0 0 0 1x1
** *13 0 0 0 1 0 0 0 0 0 0 0 0 0 0 0 0 1x1
** *14 0 0 1 0 0 0 0 0 0 0 0 0 0 0 0 0 1x1
** *15 0 1 0 0 0 0 0 0 0 0 0 0 0 0 0 0 1x1
** *16 1 0 0 0 0 0 0 0 0 0 0 0 0 0 0 0 1x1

** *RESISTOR_TYPES
** *1 SHORTING_ELEMENT
** *2 PRES_NG
** *3 PRES_PG
** *4 PRES_NF
** *5 PRES_PF
** *6 TCN_NDIFF
** *7 TCN_PDIFF
** *8 TCN_NFIELD
** *9 TCN_PFIELD
** *10 QUALITY_EXTRACTED
** *11 GCNLAND
** *12 TCNLAND
** *13 DUMMY
** *14 RSD
** *15 BRIDGE

** *RESISTOR_CURRENT_DIRECTION
** *0 HORIZONTAL
** *1 VERTICAL
** *2 45 DEGREE

** QRC_TECH_DIR /vols/wfo_devel/projects/reference_SKY130/tech/sky130_release_0.0.4/quantus/extraction/typical 
** HIERARCHICAL_SPLIT_PINS_DELIMITER '%'
** caps2d version: 10
*
.SUBCKT  NOR4X2_HS A B C D Y
*
*Net Section
*
*|GROUND_NET VSS!
*
*LAYER_MAP
*0 none
*1 metal1
*2 li
*3 poly
*4 diff
*5 licon_diff
*6 mcon
*7 licon
*8 FOX

*|NET VDD! 2.3112e-15
*|P (VDD! X 0 2.4150 4.1450) // $llx=2.4150 $lly=4.1450 $urx=2.4150 $ury=4.1450 $lvl=1
*|I (Mmp0:s Mmp0 s X 0 0.5505 3.0150) // $llx=0.5505 $lly=3.0150 $urx=0.5505 $ury=3.0150 $lvl=4
*|I (Mmp0:b Mmp0 b X 0 0.4750 3.0150) // $llx=0.4750 $lly=3.0150 $urx=0.4750 $ury=3.0150 $lvl=8
*|I (Mmp0@1:s Mmp0@1 s X 0 0.8295 3.0150) // $llx=0.8295 $lly=3.0150 $urx=0.8295 $ury=3.0150 $lvl=4
*|I (Mmp0@1:b Mmp0@1 b X 0 0.9050 3.0150) // $llx=0.9050 $lly=3.0150 $urx=0.9050 $ury=3.0150 $lvl=8
*|I (Mmp1:b Mmp1 b X 0 1.3350 3.0150) // $llx=1.3350 $lly=3.0150 $urx=1.3350 $ury=3.0150 $lvl=8
*|I (Mmp1@1:b Mmp1@1 b X 0 1.7650 3.0150) // $llx=1.7650 $lly=3.0150 $urx=1.7650 $ury=3.0150 $lvl=8
*|I (Mmp3:b Mmp3 b X 0 3.5750 3.0150) // $llx=3.5750 $lly=3.0150 $urx=3.5750 $ury=3.0150 $lvl=8
*|I (Mmp3@1:b Mmp3@1 b X 0 4.0050 3.0150) // $llx=4.0050 $lly=3.0150 $urx=4.0050 $ury=3.0150 $lvl=8
*|I (Mmp2:b Mmp2 b X 0 2.7150 3.0150) // $llx=2.7150 $lly=3.0150 $urx=2.7150 $ury=3.0150 $lvl=8
*|I (Mmp2@1:b Mmp2@1 b X 0 3.1450 3.0150) // $llx=3.1450 $lly=3.0150 $urx=3.1450 $ury=3.0150 $lvl=8
*|S (VDD!:1 0.6900 2.2850) // $llx=0.6900 $lly=2.2850 $urx=0.6900 $ury=2.2850 $lvl=2
*|S (VDD!:3 0.6900 3.0150) // $llx=0.6900 $lly=3.0150 $urx=0.6900 $ury=3.0150 $lvl=2
*|S (VDD!:4 0.6900 4.1400) // $llx=0.6900 $lly=4.1400 $urx=0.6900 $ury=4.1400 $lvl=2
*|S (VDD!:5 0.0000 4.1400) // $llx=0.0000 $lly=4.1400 $urx=0.0000 $ury=4.1400 $lvl=2
*|S (VDD!:6 2.3000 4.1400) // $llx=2.3000 $lly=4.1400 $urx=2.3000 $ury=4.1400 $lvl=2
*|S (VDD!:7 2.3000 4.1400) // $llx=2.3000 $lly=4.1400 $urx=2.3000 $ury=4.1400 $lvl=4
*|S (VDD!:9 4.6000 4.1400) // $llx=4.6000 $lly=4.1400 $urx=4.6000 $ury=4.1400 $lvl=1
*|S (VDD!:10 2.3000 4.1400) // $llx=2.3000 $lly=4.1400 $urx=2.3000 $ury=4.1400 $lvl=1
*|S (VDD!:11 0.0000 4.1400) // $llx=0.0000 $lly=4.1400 $urx=0.0000 $ury=4.1400 $lvl=1
CF1 Mmp0:s VSS! 1.48907e-18 $lvl=4
CF2 VDD!:10 VSS! 2.52e-17 $lvl=1
CF3 VDD!:9 VSS! 1.03558e-17 $lvl=1
CF4 VDD!:11 VSS! 8.36725e-18 $lvl=1
CF5 VDD!:3 VSS! 1.22778e-17 $lvl=2
CF6 VDD!:4 VSS! 7.95967e-18 $lvl=2
CF7 VDD!:5 VSS! 2.98197e-18 $lvl=2
CF8 VDD!:7 VSS! 6.3252e-18 $lvl=4
CF9 VDD!:6 VSS! 6.69744e-18 $lvl=2
CF10 VDD! VSS! 1.67373e-17 $lvl=1
CF11 VDD!:10 n2 7.70492e-18 $lvl1=1 $lvl2=2
CF12 VDD! n2:18 7.5367e-18 $lvl1=1 $lvl2=1
CF13 VDD!:10 n2:9 7.24534e-18 $lvl1=1 $lvl2=2
CF14 VDD!:9 n2:16 7.08216e-18 $lvl1=1 $lvl2=1
CF15 VDD!:9 n2:11 6.7673e-18 $lvl1=1 $lvl2=2
CF16 VDD!:10 n2:11 6.39174e-18 $lvl1=1 $lvl2=2
CF17 VDD! n2:20 5.07939e-18 $lvl1=1 $lvl2=1
CF18 VDD! n2:15 3.66933e-18 $lvl1=1 $lvl2=2
CF19 VDD!:7 n2:11 3.54818e-18 $lvl1=4 $lvl2=2
CF20 VDD!:6 n2 2.56542e-18 $lvl1=2 $lvl2=2
CF21 VDD!:6 n2:9 2.44887e-18 $lvl1=2 $lvl2=2
CF22 VDD!:4 Mmp3@1:s 2.38848e-18 $lvl1=2 $lvl2=4
CF23 VDD! n2:12 2.21563e-18 $lvl1=1 $lvl2=2
CF24 VDD!:6 n2:11 2.03621e-18 $lvl1=2 $lvl2=2
CF25 VDD!:7 n2 1.97488e-18 $lvl1=4 $lvl2=2
CF26 VDD!:4 n2:16 1.94418e-18 $lvl1=2 $lvl2=1
CF27 VDD!:4 Mmp2:d 1.73284e-18 $lvl1=2 $lvl2=4
CF28 VDD!:4 Mmp3:s 1.66484e-18 $lvl1=2 $lvl2=4
CF29 VDD! n2:9 1.54789e-18 $lvl1=1 $lvl2=2
CF30 VDD!:4 n2:18 1.49469e-18 $lvl1=2 $lvl2=1
CF31 VDD!:10 n2:2 1.35895e-18 $lvl1=1 $lvl2=2
CF32 VDD!:9 n2:18 1.30613e-18 $lvl1=1 $lvl2=1
CF33 VDD!:4 n2:20 1.27956e-18 $lvl1=2 $lvl2=1
CF34 VDD!:10 n2:20 1.92589e-17 $lvl1=1 $lvl2=1
CF35 VDD!:10 n2:16 1.48942e-17 $lvl1=1 $lvl2=1
CF36 VDD! n2:11 5.85946e-17 $lvl1=1 $lvl2=2
CF37 VDD! n2 2.11069e-17 $lvl1=1 $lvl2=2
CF38 VDD!:4 n2:11 2.64969e-17 $lvl1=2 $lvl2=2
CF39 VDD!:10 n2:18 2.70295e-17 $lvl1=1 $lvl2=1
CF40 VDD! n2:16 1.76955e-17 $lvl1=1 $lvl2=1
CF41 VDD!:4 n2:9 2.17115e-17 $lvl1=2 $lvl2=2
CF42 VDD!:4 n2 2.79618e-17 $lvl1=2 $lvl2=2
CF43 VDD!:10 n1 7.58189e-18 $lvl1=1 $lvl2=2
CF44 VDD!:10 n1:6 7.04851e-18 $lvl1=1 $lvl2=2
CF45 VDD! n1:11 7.00716e-18 $lvl1=1 $lvl2=1
CF46 VDD! n1:14 6.66184e-18 $lvl1=1 $lvl2=1
CF47 VDD!:10 n1:11 4.16878e-18 $lvl1=1 $lvl2=1
CF48 VDD!:10 n1:14 3.76232e-18 $lvl1=1 $lvl2=1
CF49 VDD!:6 n1 2.70219e-18 $lvl1=2 $lvl2=2
CF50 VDD!:6 n1:6 2.63824e-18 $lvl1=2 $lvl2=2
CF51 VDD!:4 Mmp1:d 1.8564e-18 $lvl1=2 $lvl2=4
CF52 VDD! n1:6 1.31188e-18 $lvl1=1 $lvl2=2
CF53 VDD!:4 n1 2.28425e-17 $lvl1=2 $lvl2=2
CF54 VDD!:4 n1:6 2.1959e-17 $lvl1=2 $lvl2=2
CF55 VDD!:11 n0:20 9.89632e-18 $lvl1=1 $lvl2=1
CF56 VDD! n0:14 9.71277e-18 $lvl1=1 $lvl2=2
CF57 VDD! n0:18 9.66142e-18 $lvl1=1 $lvl2=1
CF58 VDD!:3 n0:5 8.83268e-18 $lvl1=2 $lvl2=2
CF59 VDD!:10 n0:14 8.78679e-18 $lvl1=1 $lvl2=2
CF60 VDD!:11 n0 8.38762e-18 $lvl1=1 $lvl2=2
CF61 VDD!:3 n0:10 7.35846e-18 $lvl1=2 $lvl2=2
CF62 VDD!:10 n0:6 7.12725e-18 $lvl1=1 $lvl2=2
CF63 VDD! n0:5 5.20962e-18 $lvl1=1 $lvl2=2
CF64 VDD!:10 n0 5.0689e-18 $lvl1=1 $lvl2=2
CF65 VDD!:3 n0:7 4.5046e-18 $lvl1=2 $lvl2=2
CF66 VDD! n0:17 4.42666e-18 $lvl1=1 $lvl2=1
CF67 VDD!:7 n0 3.72614e-18 $lvl1=4 $lvl2=2
CF68 VDD!:6 n0:14 3.05703e-18 $lvl1=2 $lvl2=2
CF69 VDD!:4 Mmp0@1:d 2.75484e-18 $lvl1=2 $lvl2=4
CF70 VDD!:6 n0:6 2.56725e-18 $lvl1=2 $lvl2=2
CF71 VDD!:3 n0:2 2.31181e-18 $lvl1=2 $lvl2=2
CF72 VDD!:4 Mmp1@1:s 2.2656e-18 $lvl1=2 $lvl2=4
CF73 VDD!:4 Mmp0:d 1.96295e-18 $lvl1=2 $lvl2=4
CF74 VDD!:10 n0:7 1.74557e-18 $lvl1=1 $lvl2=2
CF75 VDD!:6 n0 1.73977e-18 $lvl1=2 $lvl2=2
CF76 VDD!:4 n0:18 1.71897e-18 $lvl1=2 $lvl2=1
CF77 VDD!:11 n0:18 1.67704e-18 $lvl1=1 $lvl2=1
CF78 VDD! n0:6 1.57033e-18 $lvl1=1 $lvl2=2
CF79 VDD!:3 Mmp0@1:d 1.51139e-18 $lvl1=2 $lvl2=4
CF80 VDD!:5 n0:20 1.43859e-18 $lvl1=2 $lvl2=1
CF81 VDD!:4 n0:17 1.34206e-18 $lvl1=2 $lvl2=1
CF82 VDD!:4 n0:20 1.29841e-18 $lvl1=2 $lvl2=1
CF83 Mmp0:s n0 1.26114e-18 $lvl1=4 $lvl2=2
CF84 VDD!:3 Mmp0:d 1.15066e-18 $lvl1=2 $lvl2=4
CF85 VDD!:4 n0:14 2.71489e-17 $lvl1=2 $lvl2=2
CF86 VDD!:3 n0 1.02176e-16 $lvl1=2 $lvl2=2
CF87 VDD!:3 n0:20 1.55899e-17 $lvl1=2 $lvl2=1
CF88 VDD!:4 n0 1.41306e-17 $lvl1=2 $lvl2=2
CF89 VDD!:4 n0:6 2.23397e-17 $lvl1=2 $lvl2=2
CF90 VDD!:10 n0:17 2.10279e-17 $lvl1=1 $lvl2=1
CF91 VDD!:5 n0 1.37281e-17 $lvl1=2 $lvl2=2
CF92 VDD! n0 5.61239e-17 $lvl1=1 $lvl2=2
CF93 VDD!:3 n0:6 9.2538e-17 $lvl1=2 $lvl2=2
CF94 VDD!:3 n0:18 1.35986e-17 $lvl1=2 $lvl2=1
CF95 VDD!:10 n0:18 2.40693e-17 $lvl1=1 $lvl2=1
CF96 VDD! n0:20 2.35292e-17 $lvl1=1 $lvl2=1
CF97 VDD!:10 n0:20 1.60358e-17 $lvl1=1 $lvl2=1
CF98 VDD!:10 VSS!:31 2.75769e-18 $lvl1=1 $lvl2=1
CF99 VDD! VSS!:11 2.42735e-17 $lvl1=1 $lvl2=2
CF100 VDD! VSS!:12 2.17012e-17 $lvl1=1 $lvl2=2
CF101 VDD! VSS!:13 1.05657e-17 $lvl1=1 $lvl2=2
CF102 VDD! VSS!:31 1.27541e-16 $lvl1=1 $lvl2=1
CF103 VDD! VSS!:30 3.31724e-17 $lvl1=1 $lvl2=1
CF104 VDD! VSS!:32 3.62082e-17 $lvl1=1 $lvl2=1
CF105 VDD! VSS!:1 2.15092e-17 $lvl1=1 $lvl2=2
CF106 VDD! VSS!:29 2.52543e-17 $lvl1=1 $lvl2=2
CF107 VDD! VSS!:14 1.24282e-17 $lvl1=1 $lvl2=2
CF108 VDD! VSS!:4 2.31965e-17 $lvl1=1 $lvl2=2
CF109 VDD! VSS!:5 2.25456e-17 $lvl1=1 $lvl2=2
CF110 VDD! VSS!:7 4.62534e-17 $lvl1=1 $lvl2=2
ReF111 VDD!:9 VDD! 0.682813 $metal1  $L=2.185 $W=0.400000 $SI_W=0.4 $TYPE=10 $DIR=0 $LLX=2.415000 $LLY=3.940000 $URX=4.600000 $URY=4.340000 $lvl=1
ReF112 VDD! VDD!:10 0.035937 $metal1  $L=0.115 $W=0.400000 $SI_W=0.4 $TYPE=10 $DIR=0 $LLX=2.300000 $LLY=3.940000 $URX=2.415000 $URY=4.340000 $lvl=1
ReF113 VDD!:10 VDD!:11 0.718750 $metal1  $L=2.3 $W=0.400000 $SI_W=0.4 $TYPE=10 $DIR=0 $LLX=0.000000 $LLY=3.940000 $URX=2.300000 $URY=4.340000 $lvl=1
RfF114 VDD!:1 VDD!:3 54.964703 $li  $L=0.73 $W=0.170000 $SI_W=0.17 $TYPE=10 $DIR=1 $LLX=0.605000 $LLY=2.285000 $URX=0.775000 $URY=3.015000 $lvl=2
RfF115 VDD!:3 VDD!:4 81.706917 $li  $L=1.12525 $W=0.170000 $SI_W=0.17 $TYPE=10 $DIR=1 $LLX=0.605000 $LLY=3.015000 $URX=0.775000 $URY=4.140000 $lvl=2
RfF116 VDD!:4 VDD!:5 35.340801 $li  $L=0.69025 $W=0.250000 $SI_W=0.25 $TYPE=10 $DIR=0 $LLX=0.000000 $LLY=4.015000 $URX=0.690000 $URY=4.265000 $lvl=2
RfF117 VDD!:4 VDD!:6 82.419205 $li  $L=1.60975 $W=0.250000 $SI_W=0.25 $TYPE=10 $DIR=0 $LLX=0.690000 $LLY=4.015000 $URX=2.300000 $URY=4.265000 $lvl=2
Rh_1_F118 VDD!:7 VDD!:6 1.666667 $licon_diff  $A=0.2601 $VC=0 $SAVL=0 $SAVC=0 $SI_A=0.2601 $COVER_DIR=0 $LLX=0.000000 $LLY=0.000000 $URX=-0.260100 $URY=-9.000000 $lvl=5
Rh_2_F119 Mmp0:s VDD!:3 3.750000 $licon_diff  $A=0.1156 $VC=0 $SAVL=0 $SAVC=0 $SI_A=0.1156 $COVER_DIR=0 $LLX=0.000000 $LLY=0.000000 $URX=-0.115600 $URY=-4.000000 $lvl=5
RjF120 VDD!:6 VDD!:10 16.888889 $mcon  $A=0.2601 $VC=0 $SAVL=0 $SAVC=0 $SI_A=0.2601 $COVER_DIR=0 $LLX=0.000000 $LLY=0.000000 $URX=-0.260100 $URY=-9.000000 $lvl=6
RmwF121 Mmp0:b VDD! 0.001000 $FOX $W=1000000 $SI_W=1000000 $TYPE=1 $DIR=0
RmwF122 Mmp0@1:s Mmp0:s 0.001000 $diff $W=1000000 $SI_W=1000000 $TYPE=1 $DIR=0
RmwF123 Mmp0@1:b VDD! 0.001000 $FOX $W=1000000 $SI_W=1000000 $TYPE=1 $DIR=0
RmwF124 Mmp1:b VDD! 0.001000 $FOX $W=1000000 $SI_W=1000000 $TYPE=1 $DIR=0
RmwF125 Mmp1@1:b VDD! 0.001000 $FOX $W=1000000 $SI_W=1000000 $TYPE=1 $DIR=0
RmwF126 Mmp3:b VDD! 0.001000 $FOX $W=1000000 $SI_W=1000000 $TYPE=1 $DIR=0
RmwF127 Mmp3@1:b VDD! 0.001000 $FOX $W=1000000 $SI_W=1000000 $TYPE=1 $DIR=0
RmwF128 Mmp2:b VDD! 0.001000 $FOX $W=1000000 $SI_W=1000000 $TYPE=1 $DIR=0
RmwF129 Mmp2@1:b VDD! 0.001000 $FOX $W=1000000 $SI_W=1000000 $TYPE=1 $DIR=0
*
*|NET B 1.96123e-15
*|P (B X 0 1.3950 1.8150) // $llx=1.3950 $lly=1.8150 $urx=1.3950 $ury=1.8150 $lvl=1
*|I (Mmp1:g Mmp1 g X 0 1.3350 3.0150) // $llx=1.3350 $lly=3.0150 $urx=1.3350 $ury=3.0150 $lvl=3
*|I (Mmp1@1:g Mmp1@1 g X 0 1.7650 3.0150) // $llx=1.7650 $lly=3.0150 $urx=1.7650 $ury=3.0150 $lvl=3
*|I (Mmn1:g Mmn1 g X 0 1.3350 0.7750) // $llx=1.3350 $lly=0.7750 $urx=1.3350 $ury=0.7750 $lvl=3
*|I (Mmn1@1:g Mmn1@1 g X 0 1.7650 0.7750) // $llx=1.7650 $lly=0.7750 $urx=1.7650 $ury=0.7750 $lvl=3
*|S (B:15 1.7650 3.8950) // $llx=1.7650 $lly=3.8950 $urx=1.7650 $ury=3.8950 $lvl=3
*|S (B:16 1.7650 1.6800) // $llx=1.7650 $lly=1.6800 $urx=1.7650 $ury=1.6800 $lvl=3
*|S (B:17 1.5500 1.6800) // $llx=1.5500 $lly=1.6800 $urx=1.5500 $ury=1.6800 $lvl=3
*|S (B:18 1.3350 1.6800) // $llx=1.3350 $lly=1.6800 $urx=1.3350 $ury=1.6800 $lvl=3
*|S (B:19 1.3250 1.5150) // $llx=1.3250 $lly=1.5150 $urx=1.3250 $ury=1.5150 $lvl=3
*|S (B:20 1.7750 1.5150) // $llx=1.7750 $lly=1.5150 $urx=1.7750 $ury=1.5150 $lvl=3
*|S (B:21 1.7650 0.2450) // $llx=1.7650 $lly=0.2450 $urx=1.7650 $ury=0.2450 $lvl=3
*|S (B:22 1.3250 1.8445) // $llx=1.3250 $lly=1.8445 $urx=1.3250 $ury=1.8445 $lvl=3
*|S (B:23 1.3350 3.8950) // $llx=1.3350 $lly=3.8950 $urx=1.3350 $ury=3.8950 $lvl=3
*|S (B:24 1.3350 0.2450) // $llx=1.3350 $lly=0.2450 $urx=1.3350 $ury=0.2450 $lvl=3
*|S (B:25 1.5500 1.6800) // $llx=1.5500 $lly=1.6800 $urx=1.5500 $ury=1.6800 $lvl=2
*|S (B:26 1.3800 1.6800) // $llx=1.3800 $lly=1.6800 $urx=1.3800 $ury=1.6800 $lvl=2
*|S (B:27 1.3800 2.4600) // $llx=1.3800 $lly=2.4600 $urx=1.3800 $ury=2.4600 $lvl=1
*|S (B:28 1.3800 1.6800) // $llx=1.3800 $lly=1.6800 $urx=1.3800 $ury=1.6800 $lvl=1
*|S (B:29 1.3800 1.2200) // $llx=1.3800 $lly=1.2200 $urx=1.3800 $ury=1.2200 $lvl=1
CB1 Mmn1:g VSS! 2.38659e-18 $lvl=3
CB2 B:27 VSS! 1.66747e-17 $lvl=1
CB3 B:29 VSS! 9.86127e-18 $lvl=1
CB4 B:15 VSS! 4.91879e-18 $lvl=3
CB5 B:23 VSS! 4.11086e-18 $lvl=3
CB6 B:21 VSS! 2.2079e-18 $lvl=3
CB7 B:25 VSS! 1.53353e-17 $lvl=2
CB8 B:26 VSS! 7.53443e-18 $lvl=2
CB9 B:17 VSS! 4.03674e-17 $lvl=3
CB10 B:27 n1:5 7.75921e-18 $lvl1=1 $lvl2=2
CB11 B:27 n1 5.06653e-18 $lvl1=1 $lvl2=2
CB12 B:27 n1:11 2.8572e-18 $lvl1=1 $lvl2=1
CB13 B:17 n1:5 2.63754e-18 $lvl1=3 $lvl2=2
CB14 B:25 n1:5 2.57805e-18 $lvl1=2 $lvl2=2
CB15 B:27 n1:4 2.51007e-18 $lvl1=1 $lvl2=2
CB16 B:17 n1 2.31931e-18 $lvl1=3 $lvl2=2
CB17 B:17 Mmp1:d 1.01525e-18 $lvl1=3 $lvl2=4
CB18 B:23 n1 2.49987e-16 $lvl1=3 $lvl2=2
CB19 B:27 n1:14 3.24175e-17 $lvl1=1 $lvl2=1
CB20 B:15 n1 2.49427e-16 $lvl1=3 $lvl2=2
CB21 B:27 n0:6 6.77845e-18 $lvl1=1 $lvl2=2
CB22 B:27 n0:18 6.63035e-18 $lvl1=1 $lvl2=1
CB23 B:27 n0:10 6.45475e-18 $lvl1=1 $lvl2=2
CB24 B:27 n0:15 2.83703e-18 $lvl1=1 $lvl2=2
CB25 B:27 n0:20 2.79831e-18 $lvl1=1 $lvl2=1
CB26 B:25 n0:15 2.54712e-18 $lvl1=2 $lvl2=2
CB27 B:27 n0:14 2.44971e-18 $lvl1=1 $lvl2=2
CB28 B:17 n0:15 2.14157e-18 $lvl1=3 $lvl2=2
CB29 B:17 n0:14 2.08128e-18 $lvl1=3 $lvl2=2
CB30 B:17 n0:10 2.0476e-18 $lvl1=3 $lvl2=2
CB31 B:17 n0:6 1.8016e-18 $lvl1=3 $lvl2=2
CB32 B:25 n0:10 1.38387e-18 $lvl1=2 $lvl2=2
CB33 B:27 n0:17 1.28945e-18 $lvl1=1 $lvl2=1
CB34 B:26 n0:10 1.25127e-18 $lvl1=2 $lvl2=2
CB35 B:15 n0:15 1.14125e-18 $lvl1=3 $lvl2=2
CB36 B:25 n0:14 1.11176e-18 $lvl1=2 $lvl2=2
CB37 B:23 n0:10 9.85211e-19 $lvl1=3 $lvl2=2
CB38 B:27 n0 9.16731e-19 $lvl1=1 $lvl2=2
CB39 B:15 n0:14 2.49757e-16 $lvl1=3 $lvl2=2
CB40 B:23 n0:6 2.53903e-16 $lvl1=3 $lvl2=2
CB41 Mmn1:g VSS!:11 7.30248e-18 $lvl1=3 $lvl2=2
CB42 B:21 VSS!:7 6.71753e-18 $lvl1=3 $lvl2=2
CB43 B:29 VSS!:26 5.95549e-18 $lvl1=1 $lvl2=2
CB44 B:17 VSS!:22 4.97581e-18 $lvl1=3 $lvl2=2
CB45 B:25 VSS!:22 4.49753e-18 $lvl1=2 $lvl2=2
CB46 B:29 VSS!:22 3.28488e-18 $lvl1=1 $lvl2=2
CB47 B:17 VSS!:26 3.17869e-18 $lvl1=3 $lvl2=2
CB48 B:27 VSS!:31 2.26941e-18 $lvl1=1 $lvl2=1
CB49 B:29 VSS!:31 2.20195e-18 $lvl1=1 $lvl2=1
CB50 B:25 VSS!:26 1.83575e-18 $lvl1=2 $lvl2=2
CB51 B:21 VSS!:11 1.66514e-18 $lvl1=3 $lvl2=2
CB52 B:17 VSS!:20 1.49318e-18 $lvl1=3 $lvl2=2
CB53 B:27 VSS!:22 1.21624e-18 $lvl1=1 $lvl2=2
CB54 B:25 VSS!:20 1.17183e-18 $lvl1=2 $lvl2=2
CB55 B:26 VSS!:26 1.12544e-18 $lvl1=2 $lvl2=2
CB56 Mmn1:g VSS!:7 1.06259e-18 $lvl1=3 $lvl2=2
CB57 B:21 VSS!:20 1.05947e-18 $lvl1=3 $lvl2=2
CB58 Mmn1:g VSS!:26 1.26267e-16 $lvl1=3 $lvl2=2
CB59 B:21 VSS!:22 1.29363e-16 $lvl1=3 $lvl2=2
CB60 B:23 VDD!:4 8.9968e-18 $lvl1=3 $lvl2=2
CB61 B:15 VDD!:4 8.95637e-18 $lvl1=3 $lvl2=2
CB62 B:29 VDD! 5.37525e-18 $lvl1=1 $lvl2=1
CB63 B:27 VDD!:3 4.4414e-18 $lvl1=1 $lvl2=2
CB64 B:17 VDD! 3.3133e-18 $lvl1=3 $lvl2=1
CB65 B:27 VDD! 1.15777e-17 $lvl1=1 $lvl2=1
CB66 B:29 Y:5 7.32744e-18 $lvl1=1 $lvl2=2
CB67 B:17 Y:5 6.42547e-18 $lvl1=3 $lvl2=2
CB68 B:29 Y:27 5.46017e-18 $lvl1=1 $lvl2=1
CB69 B:25 Y:5 4.69756e-18 $lvl1=2 $lvl2=2
CB70 B:27 Y:26 3.9172e-18 $lvl1=1 $lvl2=1
CB71 B:26 Y:5 1.94114e-18 $lvl1=2 $lvl2=2
CB72 B:29 Y:4 1.53382e-18 $lvl1=1 $lvl2=2
CB73 B:27 Y:27 1.51701e-18 $lvl1=1 $lvl2=1
CB74 B:29 Y:25 1.47205e-18 $lvl1=1 $lvl2=1
CB75 B:27 Y:25 1.18239e-18 $lvl1=1 $lvl2=1
CB76 B:29 Y:26 1.59285e-17 $lvl1=1 $lvl2=1
CB77 B:21 Y:5 1.27222e-16 $lvl1=3 $lvl2=2
CB78 Mmn1:g Y:5 1.29161e-16 $lvl1=3 $lvl2=2
CB79 B:27 C:27 6.84801e-18 $lvl1=1 $lvl2=1
CB80 B:25 C:27 3.17465e-18 $lvl1=2 $lvl2=1
CB81 B:29 C:27 2.5585e-18 $lvl1=1 $lvl2=1
CB82 B:17 C:17 1.51635e-18 $lvl1=3 $lvl2=3
CB83 B:27 C:29 1.4015e-18 $lvl1=1 $lvl2=1
CB84 B:17 C:27 1.29332e-18 $lvl1=3 $lvl2=1
CB85 B:29 C:29 1.20671e-18 $lvl1=1 $lvl2=1
ReB20 B:27 B 0.310096 $metal1  $L=0.645 $W=0.260000 $SI_W=0.26 $TYPE=10 $DIR=1 $LLX=1.250000 $LLY=1.815000 $URX=1.510000 $URY=2.460000 $lvl=1
ReB21 B B:28 0.064904 $metal1  $L=0.135 $W=0.260000 $SI_W=0.26 $TYPE=10 $DIR=1 $LLX=1.265000 $LLY=1.680000 $URX=1.525000 $URY=1.815000 $lvl=1
ReB22 B:28 B:29 0.221154 $metal1  $L=0.46 $W=0.260000 $SI_W=0.26 $TYPE=10 $DIR=1 $LLX=1.250000 $LLY=1.220000 $URX=1.510000 $URY=1.680000 $lvl=1
RfB23 B:25 B:26 12.800000 $li  $L=0.17 $W=0.170000 $SI_W=0.17 $TYPE=10 $DIR=0 $LLX=1.380000 $LLY=1.595000 $URX=1.550000 $URY=1.765000 $lvl=2
RgB24 B:15 Mmp1@1:g 282.773346 $poly  $L=0.88 $W=0.150000 $SI_W=0.15 $TYPE=10 $DIR=1 $LLX=1.690000 $LLY=3.015000 $URX=1.840000 $URY=3.895000 $lvl=3
RgB25 Mmp1@1:g B:16 423.458862 $poly  $L=1.33475 $W=0.150000 $SI_W=0.15 $TYPE=10 $DIR=1 $LLX=1.690000 $LLY=1.680000 $URX=1.840000 $URY=3.015000 $lvl=3
RgB26 B:16 B:17 31.439547 $poly  $L=0.21525 $W=0.330000 $SI_W=0.33 $TYPE=10 $DIR=0 $LLX=1.550000 $LLY=1.515000 $URX=1.765000 $URY=1.845000 $lvl=3
RgB27 B:17 B:18 31.366514 $poly  $L=0.21475 $W=0.330000 $SI_W=0.33 $TYPE=10 $DIR=0 $LLX=1.335000 $LLY=1.515000 $URX=1.550000 $URY=1.845000 $lvl=3
RgB28 B:18 B:19 46.784668 $poly  $L=0.16475 $W=0.170000 $SI_W=0.17 $TYPE=10 $DIR=1 $LLX=1.240000 $LLY=1.515000 $URX=1.410000 $URY=1.680000 $lvl=3
RgB29 B:19 Mmn1:g 237.857559 $poly  $L=0.74 $W=0.150000 $SI_W=0.15 $TYPE=10 $DIR=1 $LLX=1.260000 $LLY=0.775000 $URX=1.410000 $URY=1.515000 $lvl=3
RgB30 B:16 B:20 46.784668 $poly  $L=0.16475 $W=0.170000 $SI_W=0.17 $TYPE=10 $DIR=1 $LLX=1.690000 $LLY=1.515000 $URX=1.860000 $URY=1.680000 $lvl=3
RgB31 B:20 Mmn1@1:g 237.857559 $poly  $L=0.74 $W=0.150000 $SI_W=0.15 $TYPE=10 $DIR=1 $LLX=1.690000 $LLY=0.775000 $URX=1.840000 $URY=1.515000 $lvl=3
RgB32 Mmn1@1:g B:21 170.306671 $poly  $L=0.53 $W=0.150000 $SI_W=0.15 $TYPE=10 $DIR=1 $LLX=1.690000 $LLY=0.245000 $URX=1.840000 $URY=0.775000 $lvl=3
RgB33 B:18 B:22 46.642902 $poly  $L=0.16425 $W=0.170000 $SI_W=0.17 $TYPE=10 $DIR=1 $LLX=1.240000 $LLY=1.680500 $URX=1.410000 $URY=1.844500 $lvl=3
RgB34 B:22 Mmp1:g 376.030884 $poly  $L=1.17 $W=0.150000 $SI_W=0.15 $TYPE=10 $DIR=1 $LLX=1.260000 $LLY=1.844500 $URX=1.410000 $URY=3.014500 $lvl=3
RgB35 Mmp1:g B:23 282.773346 $poly  $L=0.88 $W=0.150000 $SI_W=0.15 $TYPE=10 $DIR=1 $LLX=1.260000 $LLY=3.015000 $URX=1.410000 $URY=3.895000 $lvl=3
RgB36 Mmn1:g B:24 170.306671 $poly  $L=0.53 $W=0.150000 $SI_W=0.15 $TYPE=10 $DIR=1 $LLX=1.260000 $LLY=0.245000 $URX=1.410000 $URY=0.775000 $lvl=3
RjB37 B:26 B:28 152.000000 $mcon  $L=0.17 $W=0.17 $A=0.0289 $VC=0 $SAVL=0 $SAVC=0 $SI_A=0.0289 $COVER_DIR=0 $LLX=0.000000 $LLY=0.000000 $URX=0.170000 $URY=0.170000 $lvl=6
RiB38 B:17 B:25 7.500000 $licon  $A=0.0578 $VC=0 $SAVL=0 $SAVC=0 $SI_A=0.0578 $COVER_DIR=0 $LLX=0.000000 $LLY=0.000000 $URX=-0.057800 $URY=-2.000000 $lvl=7
*
*|NET n1 2.06428e-15
*|I (Mmp1:d Mmp1 d X 0 1.4105 3.0150) // $llx=1.4105 $lly=3.0150 $urx=1.4105 $ury=3.0150 $lvl=4
*|I (Mmp1@1:d Mmp1@1 d X 0 1.6895 3.0150) // $llx=1.6895 $lly=3.0150 $urx=1.6895 $ury=3.0150 $lvl=4
*|I (Mmp2:s Mmp2 s X 0 2.7905 3.0150) // $llx=2.7905 $lly=3.0150 $urx=2.7905 $ury=3.0150 $lvl=4
*|I (Mmp2@1:s Mmp2@1 s X 0 3.0695 3.0150) // $llx=3.0695 $lly=3.0150 $urx=3.0695 $ury=3.0150 $lvl=4
*|S (n1 1.5500 3.7450) // $llx=1.5500 $lly=3.7450 $urx=1.5500 $ury=3.7450 $lvl=2
*|S (n1:3 1.5500 3.0150) // $llx=1.5500 $lly=3.0150 $urx=1.5500 $ury=3.0150 $lvl=2
*|S (n1:4 1.5500 2.8200) // $llx=1.5500 $lly=2.8200 $urx=1.5500 $ury=2.8200 $lvl=2
*|S (n1:5 1.5500 2.2850) // $llx=1.5500 $lly=2.2850 $urx=1.5500 $ury=2.2850 $lvl=2
*|S (n1:6 2.9300 3.7450) // $llx=2.9300 $lly=3.7450 $urx=2.9300 $ury=3.7450 $lvl=2
*|S (n1:8 2.9300 3.0150) // $llx=2.9300 $lly=3.0150 $urx=2.9300 $ury=3.0150 $lvl=2
*|S (n1:9 2.9300 2.8200) // $llx=2.9300 $lly=2.8200 $urx=2.9300 $ury=2.8200 $lvl=2
*|S (n1:10 2.9300 2.2850) // $llx=2.9300 $lly=2.2850 $urx=2.9300 $ury=2.2850 $lvl=2
*|S (n1:11 3.0750 2.8200) // $llx=3.0750 $lly=2.8200 $urx=3.0750 $ury=2.8200 $lvl=1
*|S (n1:12 2.9300 2.8200) // $llx=2.9300 $lly=2.8200 $urx=2.9300 $ury=2.8200 $lvl=1
*|S (n1:13 1.5500 2.8200) // $llx=1.5500 $lly=2.8200 $urx=1.5500 $ury=2.8200 $lvl=1
*|S (n1:14 1.4050 2.8200) // $llx=1.4050 $lly=2.8200 $urx=1.4050 $ury=2.8200 $lvl=1
CI1 Mmp2:s VSS! 2.47917e-18 $lvl=4
CI2 Mmp1:d VSS! 1.1291e-18 $lvl=4
CI3 n1:11 VSS! 1.47495e-17 $lvl=1
CI4 n1:14 VSS! 1.49523e-17 $lvl=1
CI5 n1:6 VSS! 8.31783e-18 $lvl=2
CI6 n1:10 VSS! 9.74276e-18 $lvl=2
CI7 n1:5 VSS! 6.46344e-18 $lvl=2
CI8 n1:4 VSS! 3.41095e-18 $lvl=2
CI9 n1:9 VSS! 4.36111e-18 $lvl=2
CI10 n1 VSS! 9.30674e-18 $lvl=2
CI11 n1:6 n2:18 8.90885e-18 $lvl1=2 $lvl2=1
CI12 n1:6 n2:20 8.75042e-18 $lvl1=2 $lvl2=1
CI13 n1:14 n2:20 6.28693e-18 $lvl1=1 $lvl2=1
CI14 n1:6 n2:2 4.83135e-18 $lvl1=2 $lvl2=2
CI15 n1:10 n2:5 4.54403e-18 $lvl1=2 $lvl2=2
CI16 n1:10 n2 4.38306e-18 $lvl1=2 $lvl2=2
CI17 n1:10 n2:10 4.27645e-18 $lvl1=2 $lvl2=2
CI18 n1:11 n2:2 4.11329e-18 $lvl1=1 $lvl2=2
CI19 n1:14 n2 4.03917e-18 $lvl1=1 $lvl2=2
CI20 n1:6 n2:10 3.74363e-18 $lvl1=2 $lvl2=2
CI21 n1:10 n2:9 3.68903e-18 $lvl1=2 $lvl2=2
CI22 n1:6 n2:5 3.34031e-18 $lvl1=2 $lvl2=2
CI23 n1:6 n2:7 3.18241e-18 $lvl1=2 $lvl2=2
CI24 n1:11 n2:9 3.12904e-18 $lvl1=1 $lvl2=2
CI25 n1:9 n2:9 3.04813e-18 $lvl1=2 $lvl2=2
CI26 n1:9 n2 2.61148e-18 $lvl1=2 $lvl2=2
CI27 n1:9 n2:18 2.57487e-18 $lvl1=2 $lvl2=1
CI28 n1:11 n2:5 2.05168e-18 $lvl1=1 $lvl2=2
CI29 n1:9 n2:20 1.99874e-18 $lvl1=2 $lvl2=1
CI30 Mmp2:s n2 1.66919e-18 $lvl1=4 $lvl2=2
CI31 n1:9 n2:7 1.06871e-18 $lvl1=2 $lvl2=2
CI32 n1:14 n2:5 9.5959e-19 $lvl1=1 $lvl2=2
CI33 n1:11 n2:18 3.56749e-17 $lvl1=1 $lvl2=1
CI34 n1:6 n2:9 8.4743e-17 $lvl1=2 $lvl2=2
CI35 n1:11 n2:20 8.02156e-17 $lvl1=1 $lvl2=1
CI36 n1:6 n2 9.47276e-17 $lvl1=2 $lvl2=2
CI37 n1:11 n2 1.51314e-17 $lvl1=1 $lvl2=2
ReI191 n1:11 n1:12 0.078804 $metal1  $L=0.145 $W=0.230000 $SI_W=0.23 $TYPE=10 $DIR=0 $LLX=2.930000 $LLY=2.705000 $URX=3.075000 $URY=2.935000 $lvl=1
ReI192 n1:12 n1:13 0.750000 $metal1  $L=1.38 $W=0.230000 $SI_W=0.23 $TYPE=10 $DIR=0 $LLX=1.550000 $LLY=2.705000 $URX=2.930000 $URY=2.935000 $lvl=1
ReI193 n1:13 n1:14 0.078804 $metal1  $L=0.145 $W=0.230000 $SI_W=0.23 $TYPE=10 $DIR=0 $LLX=1.405000 $LLY=2.705000 $URX=1.550000 $URY=2.935000 $lvl=1
RfI194 n1 n1:3 54.964703 $li  $L=0.73 $W=0.170000 $SI_W=0.17 $TYPE=10 $DIR=1 $LLX=1.465000 $LLY=3.015000 $URX=1.635000 $URY=3.745000 $lvl=2
RfI195 n1:3 n1:4 14.682353 $li  $L=0.195 $W=0.170000 $SI_W=0.17 $TYPE=10 $DIR=1 $LLX=1.465000 $LLY=2.820000 $URX=1.635000 $URY=3.015000 $lvl=2
RfI196 n1:4 n1:5 40.282356 $li  $L=0.535 $W=0.170000 $SI_W=0.17 $TYPE=10 $DIR=1 $LLX=1.465000 $LLY=2.285000 $URX=1.635000 $URY=2.820000 $lvl=2
RfI197 n1:6 n1:8 54.964703 $li  $L=0.73 $W=0.170000 $SI_W=0.17 $TYPE=10 $DIR=1 $LLX=2.845000 $LLY=3.015000 $URX=3.015000 $URY=3.745000 $lvl=2
RfI198 n1:8 n1:9 14.682353 $li  $L=0.195 $W=0.170000 $SI_W=0.17 $TYPE=10 $DIR=1 $LLX=2.845000 $LLY=2.820000 $URX=3.015000 $URY=3.015000 $lvl=2
RfI199 n1:9 n1:10 40.282356 $li  $L=0.535 $W=0.170000 $SI_W=0.17 $TYPE=10 $DIR=1 $LLX=2.845000 $LLY=2.285000 $URX=3.015000 $URY=2.820000 $lvl=2
Rh_2_I200 Mmp1:d n1:3 3.750000 $licon_diff  $A=0.1156 $VC=0 $SAVL=0 $SAVC=0 $SI_A=0.1156 $COVER_DIR=0 $LLX=0.000000 $LLY=0.000000 $URX=-0.115600 $URY=-4.000000 $lvl=5
Rh_2_I201 Mmp2:s n1:8 3.750000 $licon_diff  $A=0.1156 $VC=0 $SAVL=0 $SAVC=0 $SI_A=0.1156 $COVER_DIR=0 $LLX=0.000000 $LLY=0.000000 $URX=-0.115600 $URY=-4.000000 $lvl=5
RjI202 n1:9 n1:12 152.000000 $mcon  $L=0.17 $W=0.17 $A=0.0289 $VC=0 $SAVL=0 $SAVC=0 $SI_A=0.0289 $COVER_DIR=0 $LLX=0.000000 $LLY=0.000000 $URX=0.170000 $URY=0.170000 $lvl=6
RjI203 n1:4 n1:13 152.000000 $mcon  $L=0.17 $W=0.17 $A=0.0289 $VC=0 $SAVL=0 $SAVC=0 $SI_A=0.0289 $COVER_DIR=0 $LLX=0.000000 $LLY=0.000000 $URX=0.170000 $URY=0.170000 $lvl=6
RmwI204 Mmp1@1:d Mmp1:d 0.001000 $diff $W=1000000 $SI_W=1000000 $TYPE=1 $DIR=0
RmwI205 Mmp2@1:s Mmp2:s 0.001000 $diff $W=1000000 $SI_W=1000000 $TYPE=1 $DIR=0
*
*|NET n2 2.37813e-15
*|I (Mmp3:s Mmp3 s X 0 3.4995 3.0150) // $llx=3.4995 $lly=3.0150 $urx=3.4995 $ury=3.0150 $lvl=4
*|I (Mmp3@1:s Mmp3@1 s X 0 4.0805 3.0150) // $llx=4.0805 $lly=3.0150 $urx=4.0805 $ury=3.0150 $lvl=4
*|I (Mmp2:d Mmp2 d X 0 2.6395 3.0150) // $llx=2.6395 $lly=3.0150 $urx=2.6395 $ury=3.0150 $lvl=4
*|I (Mmp2@1:d Mmp2@1 d X 0 3.2205 3.0150) // $llx=3.2205 $lly=3.0150 $urx=3.2205 $ury=3.0150 $lvl=4
*|S (n2 2.5000 3.7450) // $llx=2.5000 $lly=3.7450 $urx=2.5000 $ury=3.7450 $lvl=2
*|S (n2:2 2.5000 3.1900) // $llx=2.5000 $lly=3.1900 $urx=2.5000 $ury=3.1900 $lvl=2
*|S (n2:4 2.5000 3.0150) // $llx=2.5000 $lly=3.0150 $urx=2.5000 $ury=3.0150 $lvl=2
*|S (n2:5 2.5000 2.2850) // $llx=2.5000 $lly=2.2850 $urx=2.5000 $ury=2.2850 $lvl=2
*|S (n2:6 3.3600 3.7450) // $llx=3.3600 $lly=3.7450 $urx=3.3600 $ury=3.7450 $lvl=2
*|S (n2:7 3.3600 3.1900) // $llx=3.3600 $lly=3.1900 $urx=3.3600 $ury=3.1900 $lvl=2
*|S (n2:9 3.3600 3.0150) // $llx=3.3600 $lly=3.0150 $urx=3.3600 $ury=3.0150 $lvl=2
*|S (n2:10 3.3600 2.2850) // $llx=3.3600 $lly=2.2850 $urx=3.3600 $ury=2.2850 $lvl=2
*|S (n2:11 4.2200 3.7450) // $llx=4.2200 $lly=3.7450 $urx=4.2200 $ury=3.7450 $lvl=2
*|S (n2:12 4.2200 3.1900) // $llx=4.2200 $lly=3.1900 $urx=4.2200 $ury=3.1900 $lvl=2
*|S (n2:14 4.2200 3.0150) // $llx=4.2200 $lly=3.0150 $urx=4.2200 $ury=3.0150 $lvl=2
*|S (n2:15 4.2200 2.2850) // $llx=4.2200 $lly=2.2850 $urx=4.2200 $ury=2.2850 $lvl=2
*|S (n2:16 4.3650 3.1900) // $llx=4.3650 $lly=3.1900 $urx=4.3650 $ury=3.1900 $lvl=1
*|S (n2:17 4.2200 3.1900) // $llx=4.2200 $lly=3.1900 $urx=4.2200 $ury=3.1900 $lvl=1
*|S (n2:18 3.3600 3.1900) // $llx=3.3600 $lly=3.1900 $urx=3.3600 $ury=3.1900 $lvl=1
*|S (n2:19 2.5000 3.1900) // $llx=2.5000 $lly=3.1900 $urx=2.5000 $ury=3.1900 $lvl=1
*|S (n2:20 2.3550 3.1900) // $llx=2.3550 $lly=3.1900 $urx=2.3550 $ury=3.1900 $lvl=1
CJ1 Mmp2:d VSS! 2.37565e-18 $lvl=4
CJ2 Mmp3@1:s VSS! 2.87937e-18 $lvl=4
CJ3 Mmp3:s VSS! 2.36682e-18 $lvl=4
CJ4 n2:18 VSS! 6.02656e-18 $lvl=1
CJ5 n2:16 VSS! 8.15072e-18 $lvl=1
CJ6 n2:20 VSS! 8.14965e-18 $lvl=1
CJ7 n2:11 VSS! 7.82813e-18 $lvl=2
CJ8 n2:15 VSS! 3.47078e-18 $lvl=2
CJ9 n2:9 VSS! 6.667e-18 $lvl=2
CJ10 n2:10 VSS! 6.44592e-18 $lvl=2
CJ11 n2:5 VSS! 6.68571e-18 $lvl=2
CJ12 n2:2 VSS! 5.65201e-18 $lvl=2
CJ13 n2:7 VSS! 2.6615e-18 $lvl=2
CJ14 n2:12 VSS! 4.20663e-18 $lvl=2
CJ15 n2 VSS! 1.32076e-17 $lvl=2
ReJ206 n2:16 n2:17 0.078804 $metal1  $L=0.145 $W=0.230000 $SI_W=0.23 $TYPE=10 $DIR=0 $LLX=4.220000 $LLY=3.075000 $URX=4.365000 $URY=3.305000 $lvl=1
ReJ207 n2:17 n2:18 0.467391 $metal1  $L=0.86 $W=0.230000 $SI_W=0.23 $TYPE=10 $DIR=0 $LLX=3.360000 $LLY=3.075000 $URX=4.220000 $URY=3.305000 $lvl=1
ReJ208 n2:18 n2:19 0.467391 $metal1  $L=0.86 $W=0.230000 $SI_W=0.23 $TYPE=10 $DIR=0 $LLX=2.500000 $LLY=3.075000 $URX=3.360000 $URY=3.305000 $lvl=1
ReJ209 n2:19 n2:20 0.078804 $metal1  $L=0.145 $W=0.230000 $SI_W=0.23 $TYPE=10 $DIR=0 $LLX=2.355000 $LLY=3.075000 $URX=2.500000 $URY=3.305000 $lvl=1
RfJ210 n2 n2:2 41.788235 $li  $L=0.555 $W=0.170000 $SI_W=0.17 $TYPE=10 $DIR=1 $LLX=2.415000 $LLY=3.190000 $URX=2.585000 $URY=3.745000 $lvl=2
RfJ211 n2:2 n2:4 13.176471 $li  $L=0.175 $W=0.170000 $SI_W=0.17 $TYPE=10 $DIR=1 $LLX=2.415000 $LLY=3.015000 $URX=2.585000 $URY=3.190000 $lvl=2
RfJ212 n2:4 n2:5 54.964703 $li  $L=0.73 $W=0.170000 $SI_W=0.17 $TYPE=10 $DIR=1 $LLX=2.415000 $LLY=2.285000 $URX=2.585000 $URY=3.015000 $lvl=2
RfJ213 n2:6 n2:7 41.788235 $li  $L=0.555 $W=0.170000 $SI_W=0.17 $TYPE=10 $DIR=1 $LLX=3.275000 $LLY=3.190000 $URX=3.445000 $URY=3.745000 $lvl=2
RfJ214 n2:7 n2:9 13.176471 $li  $L=0.175 $W=0.170000 $SI_W=0.17 $TYPE=10 $DIR=1 $LLX=3.275000 $LLY=3.015000 $URX=3.445000 $URY=3.190000 $lvl=2
RfJ215 n2:9 n2:10 54.964703 $li  $L=0.73 $W=0.170000 $SI_W=0.17 $TYPE=10 $DIR=1 $LLX=3.275000 $LLY=2.285000 $URX=3.445000 $URY=3.015000 $lvl=2
RfJ216 n2:11 n2:12 41.788235 $li  $L=0.555 $W=0.170000 $SI_W=0.17 $TYPE=10 $DIR=1 $LLX=4.135000 $LLY=3.190000 $URX=4.305000 $URY=3.745000 $lvl=2
RfJ217 n2:12 n2:14 13.176471 $li  $L=0.175 $W=0.170000 $SI_W=0.17 $TYPE=10 $DIR=1 $LLX=4.135000 $LLY=3.015000 $URX=4.305000 $URY=3.190000 $lvl=2
RfJ218 n2:14 n2:15 54.964703 $li  $L=0.73 $W=0.170000 $SI_W=0.17 $TYPE=10 $DIR=1 $LLX=4.135000 $LLY=2.285000 $URX=4.305000 $URY=3.015000 $lvl=2
Rh_2_J219 Mmp2:d n2:4 3.750000 $licon_diff  $A=0.1156 $VC=0 $SAVL=0 $SAVC=0 $SI_A=0.1156 $COVER_DIR=0 $LLX=0.000000 $LLY=0.000000 $URX=-0.115600 $URY=-4.000000 $lvl=5
Rh_2_J220 Mmp3:s n2:9 3.750000 $licon_diff  $A=0.1156 $VC=0 $SAVL=0 $SAVC=0 $SI_A=0.1156 $COVER_DIR=0 $LLX=0.000000 $LLY=0.000000 $URX=-0.115600 $URY=-4.000000 $lvl=5
Rh_2_J221 Mmp3@1:s n2:14 3.750000 $licon_diff  $A=0.1156 $VC=0 $SAVL=0 $SAVC=0 $SI_A=0.1156 $COVER_DIR=0 $LLX=0.000000 $LLY=0.000000 $URX=-0.115600 $URY=-4.000000 $lvl=5
RjJ222 n2:12 n2:17 152.000000 $mcon  $L=0.17 $W=0.17 $A=0.0289 $VC=0 $SAVL=0 $SAVC=0 $SI_A=0.0289 $COVER_DIR=0 $LLX=0.000000 $LLY=0.000000 $URX=0.170000 $URY=0.170000 $lvl=6
RjJ223 n2:7 n2:18 152.000000 $mcon  $L=0.17 $W=0.17 $A=0.0289 $VC=0 $SAVL=0 $SAVC=0 $SI_A=0.0289 $COVER_DIR=0 $LLX=0.000000 $LLY=0.000000 $URX=0.170000 $URY=0.170000 $lvl=6
RjJ224 n2:2 n2:19 152.000000 $mcon  $L=0.17 $W=0.17 $A=0.0289 $VC=0 $SAVL=0 $SAVC=0 $SI_A=0.0289 $COVER_DIR=0 $LLX=0.000000 $LLY=0.000000 $URX=0.170000 $URY=0.170000 $lvl=6
RmwJ225 Mmp2@1:d Mmp3:s 0.001000 $diff $W=1000000 $SI_W=1000000 $TYPE=1 $DIR=0
*
*|NET A 1.95804e-15
*|P (A X 0 0.4750 1.6050) // $llx=0.4750 $lly=1.6050 $urx=0.4750 $ury=1.6050 $lvl=1
*|I (Mmp0:g Mmp0 g X 0 0.4750 3.0150) // $llx=0.4750 $lly=3.0150 $urx=0.4750 $ury=3.0150 $lvl=3
*|I (Mmp0@1:g Mmp0@1 g X 0 0.9050 3.0150) // $llx=0.9050 $lly=3.0150 $urx=0.9050 $ury=3.0150 $lvl=3
*|I (Mmn0:g Mmn0 g X 0 0.4750 0.7750) // $llx=0.4750 $lly=0.7750 $urx=0.4750 $ury=0.7750 $lvl=3
*|I (Mmn0@1:g Mmn0@1 g X 0 0.9050 0.7750) // $llx=0.9050 $lly=0.7750 $urx=0.9050 $ury=0.7750 $lvl=3
*|S (A:15 0.9050 3.8950) // $llx=0.9050 $lly=3.8950 $urx=0.9050 $ury=3.8950 $lvl=3