*
*|DSPF 1.5
*
*|DATE "Wed Jan  8 20:01:19 2025"
*|VENDOR "Cadence Design Systems"
*|PROGRAM "Cadence Quantus Extraction"
*|VERSION "22.1.0-p089 Linux 64 bit - (Thu Jan 19 11:47:08 PST 2023)"
*|DESIGN OAI222X2_HS
*|DIVIDER /
*|DELIMITER :
*|DeviceFingerDelim "@"
*|BUSBIT []
*|GLOBAL_TEMPERATURE 25
*|OPERATING_TEMPERATURE 25

** *VIA_COVERAGE_CODES
** *index FF FS FP FU SF SS SP SU PF PS PP PU UF US UP UU X_by_Y
** * "FF" stands for Full landing and Full coverage
** *0 0 0 0 0 0 0 0 0 0 0 0 0 0 0 0 0
** *1 0 0 0 0 0 0 0 0 0 0 0 0 0 0 0 1 1x1
** *2 0 0 0 0 0 0 0 0 0 0 0 0 0 0 1 0 1x1
** *3 0 0 0 0 0 0 0 0 0 0 0 0 0 1 0 0 1x1
** *4 0 0 0 0 0 0 0 0 0 0 0 0 1 0 0 0 1x1
** *5 0 0 0 0 0 0 0 0 0 0 0 1 0 0 0 0 1x1
** *6 0 0 0 0 0 0 0 0 0 0 1 0 0 0 0 0 1x1
** *7 0 0 0 0 0 0 0 0 0 1 0 0 0 0 0 0 1x1
** *8 0 0 0 0 0 0 0 0 1 0 0 0 0 0 0 0 1x1
** *9 0 0 0 0 0 0 0 1 0 0 0 0 0 0 0 0 1x1
** *10 0 0 0 0 0 0 1 0 0 0 0 0 0 0 0 0 1x1
** *11 0 0 0 0 0 1 0 0 0 0 0 0 0 0 0 0 1x1
** *12 0 0 0 0 1 0 0 0 0 0 0 0 0 0 0 0 1x1
** *13 0 0 0 1 0 0 0 0 0 0 0 0 0 0 0 0 1x1
** *14 0 0 1 0 0 0 0 0 0 0 0 0 0 0 0 0 1x1
** *15 0 1 0 0 0 0 0 0 0 0 0 0 0 0 0 0 1x1
** *16 1 0 0 0 0 0 0 0 0 0 0 0 0 0 0 0 1x1

** *RESISTOR_TYPES
** *1 SHORTING_ELEMENT
** *2 PRES_NG
** *3 PRES_PG
** *4 PRES_NF
** *5 PRES_PF
** *6 TCN_NDIFF
** *7 TCN_PDIFF
** *8 TCN_NFIELD
** *9 TCN_PFIELD
** *10 QUALITY_EXTRACTED
** *11 GCNLAND
** *12 TCNLAND
** *13 DUMMY
** *14 RSD
** *15 BRIDGE

** *RESISTOR_CURRENT_DIRECTION
** *0 HORIZONTAL
** *1 VERTICAL
** *2 45 DEGREE

** QRC_TECH_DIR /vols/wfo_devel/projects/reference_SKY130/tech/sky130_release_0.0.4/quantus/extraction/typical 
** HIERARCHICAL_SPLIT_PINS_DELIMITER '%'
** caps2d version: 10
*
.SUBCKT  OAI222X2_HS A0 A1 B0 B1 C0 C1 Y
*
*Net Section
*
*|GROUND_NET VSS!
*
*LAYER_MAP
*0 none
*1 metal1
*2 li
*3 poly
*4 diff
*5 licon_diff
*6 mcon
*7 licon
*8 FOX

*|NET A0 1.99121e-15
*|P (A0 X 0 0.4750 1.8200) // $llx=0.4750 $lly=1.8200 $urx=0.4750 $ury=1.8200 $lvl=1
*|I (Mmp0:g Mmp0 g X 0 0.4750 3.0150) // $llx=0.4750 $lly=3.0150 $urx=0.4750 $ury=3.0150 $lvl=3
*|I (Mmp0@1:g Mmp0@1 g X 0 0.9050 3.0150) // $llx=0.9050 $lly=3.0150 $urx=0.9050 $ury=3.0150 $lvl=3
*|I (Mmn0:g Mmn0 g X 0 0.4750 0.7750) // $llx=0.4750 $lly=0.7750 $urx=0.4750 $ury=0.7750 $lvl=3
*|I (Mmn0@1:g Mmn0@1 g X 0 0.9050 0.7750) // $llx=0.9050 $lly=0.7750 $urx=0.9050 $ury=0.7750 $lvl=3
*|S (A0:15 0.9050 3.8950) // $llx=0.9050 $lly=3.8950 $urx=0.9050 $ury=3.8950 $lvl=3
*|S (A0:16 0.9050 1.9500) // $llx=0.9050 $lly=1.9500 $urx=0.9050 $ury=1.9500 $lvl=3
*|S (A0:17 0.6900 1.9500) // $llx=0.6900 $lly=1.9500 $urx=0.6900 $ury=1.9500 $lvl=3
*|S (A0:18 0.4750 1.9500) // $llx=0.4750 $lly=1.9500 $urx=0.4750 $ury=1.9500 $lvl=3
*|S (A0:19 0.4450 1.7850) // $llx=0.4450 $lly=1.7850 $urx=0.4450 $ury=1.7850 $lvl=3
*|S (A0:20 0.9350 1.7850) // $llx=0.9350 $lly=1.7850 $urx=0.9350 $ury=1.7850 $lvl=3
*|S (A0:21 0.9050 0.2450) // $llx=0.9050 $lly=0.2450 $urx=0.9050 $ury=0.2450 $lvl=3
*|S (A0:22 0.4450 2.1145) // $llx=0.4450 $lly=2.1145 $urx=0.4450 $ury=2.1145 $lvl=3
*|S (A0:23 0.4750 3.8950) // $llx=0.4750 $lly=3.8950 $urx=0.4750 $ury=3.8950 $lvl=3
*|S (A0:24 0.4750 0.2450) // $llx=0.4750 $lly=0.2450 $urx=0.4750 $ury=0.2450 $lvl=3
*|S (A0:25 0.6900 1.9500) // $llx=0.6900 $lly=1.9500 $urx=0.6900 $ury=1.9500 $lvl=2
*|S (A0:26 0.4600 1.9500) // $llx=0.4600 $lly=1.9500 $urx=0.4600 $ury=1.9500 $lvl=2
*|S (A0:27 0.4600 2.4650) // $llx=0.4600 $lly=2.4650 $urx=0.4600 $ury=2.4650 $lvl=1
*|S (A0:28 0.4600 1.9500) // $llx=0.4600 $lly=1.9500 $urx=0.4600 $ury=1.9500 $lvl=1
*|S (A0:29 0.4600 1.2250) // $llx=0.4600 $lly=1.2250 $urx=0.4600 $ury=1.2250 $lvl=1
CA1 Mmn0@1:g VSS! 3.31046e-18 $lvl=3
CA2 Mmn0:g VSS! 3.62317e-18 $lvl=3
CA3 A0:15 VSS! 3.11164e-18 $lvl=3
CA4 A0:23 VSS! 2.93904e-18 $lvl=3
CA5 A0:25 VSS! 8.16966e-18 $lvl=2
CA6 A0:27 VSS! 1.07857e-17 $lvl=1
CA7 A0:26 VSS! 5.86928e-18 $lvl=2
CA8 A0:17 VSS! 3.14461e-17 $lvl=3
CA9 A0 VSS! 1.5907e-17 $lvl=1
CA10 A0:25 n2:10 6.78971e-18 $lvl1=2 $lvl2=2
CA11 A0:17 n2 5.88138e-18 $lvl1=3 $lvl2=2
CA12 A0:27 n2:19 5.48128e-18 $lvl1=1 $lvl2=1
CA13 A0:25 n2:5 4.88783e-18 $lvl1=2 $lvl2=2
CA14 A0:27 n2:5 4.87971e-18 $lvl1=1 $lvl2=2
CA15 A0:17 n2:6 4.32126e-18 $lvl1=3 $lvl2=2
CA16 A0:26 n2:5 3.89867e-18 $lvl1=2 $lvl2=2
CA17 A0:17 n2:5 3.60604e-18 $lvl1=3 $lvl2=2
CA18 A0:17 n2:10 3.57114e-18 $lvl1=3 $lvl2=2
CA19 A0 n2 2.77209e-18 $lvl1=1 $lvl2=2
CA20 A0:25 n2 2.59635e-18 $lvl1=2 $lvl2=2
CA21 A0 n2:20 2.47888e-18 $lvl1=1 $lvl2=1
CA22 A0:25 n2:6 2.22557e-18 $lvl1=2 $lvl2=2
CA23 A0:27 n2:6 2.04744e-18 $lvl1=1 $lvl2=2
CA24 A0:17 Mmp0:d 1.79849e-18 $lvl1=3 $lvl2=4
CA25 A0 n2:5 1.49389e-18 $lvl1=1 $lvl2=2
CA26 A0:26 n2 1.36996e-18 $lvl1=2 $lvl2=2
CA27 A0 n2:19 1.31643e-18 $lvl1=1 $lvl2=1
CA28 A0:17 Mmp1:s 1.31244e-18 $lvl1=3 $lvl2=4
CA29 A0:27 n2:10 9.90912e-19 $lvl1=1 $lvl2=2
CA30 A0:15 n2:6 2.5343e-16 $lvl1=3 $lvl2=2
CA31 A0:27 n2:20 1.12983e-17 $lvl1=1 $lvl2=1
CA32 A0:27 n2 1.0327e-17 $lvl1=1 $lvl2=2
CA33 A0:23 n2 2.57722e-16 $lvl1=3 $lvl2=2
CA34 A0 n1 8.17329e-18 $lvl1=1 $lvl2=2
CA35 A0:17 n1 3.11095e-18 $lvl1=3 $lvl2=2
CA36 A0 n1:2 2.42766e-18 $lvl1=1 $lvl2=2
CA37 A0:25 n1 2.18102e-18 $lvl1=2 $lvl2=2
CA38 A0:17 n1:6 1.47377e-18 $lvl1=3 $lvl2=2
CA39 A0 n1:6 1.38718e-18 $lvl1=1 $lvl2=2
CA40 A0:27 n1:41 1.32498e-18 $lvl1=1 $lvl2=1
CA41 A0:26 n1 1.2073e-18 $lvl1=2 $lvl2=2
CA42 Mmn0@1:g n1 1.04112e-18 $lvl1=3 $lvl2=2
CA43 A0:25 n1:6 9.69594e-19 $lvl1=2 $lvl2=2
CA44 A0 n1:38 7.67592e-19 $lvl1=1 $lvl2=1
CA45 A0:27 n1:40 7.03776e-19 $lvl1=1 $lvl2=1
CA46 Mmn0@1:g n1:10 6.98698e-19 $lvl1=3 $lvl2=2
CA47 A0:25 n1:41 6.95505e-19 $lvl1=2 $lvl2=1
CA48 Mmn0@1:g n1:6 1.26419e-16 $lvl1=3 $lvl2=2
CA49 Mmn0:g n1 1.27704e-16 $lvl1=3 $lvl2=2
CA50 A0 n1:41 4.19048e-17 $lvl1=1 $lvl2=1
CA51 A0 n1:40 1.38624e-17 $lvl1=1 $lvl2=1
CA52 Mmn0@1:g VSS!:5 7.08672e-18 $lvl1=3 $lvl2=2
CA53 Mmn0:g VSS!:5 6.81612e-18 $lvl1=3 $lvl2=2
CA54 A0 VSS!:12 5.8429e-18 $lvl1=1 $lvl2=2
CA55 A0 VSS!:14 3.51383e-18 $lvl1=1 $lvl2=1
CA56 A0:17 VSS!:12 2.77927e-18 $lvl1=3 $lvl2=2
CA57 A0 VSS!:15 1.9093e-18 $lvl1=1 $lvl2=1
CA58 A0:25 VSS!:12 1.82648e-18 $lvl1=2 $lvl2=2
CA59 Mmn0:g VSS!:12 1.27348e-16 $lvl1=3 $lvl2=2
CA60 Mmn0@1:g VSS!:12 1.29873e-16 $lvl1=3 $lvl2=2
CA61 A0:15 VDD!:4 8.57625e-18 $lvl1=3 $lvl2=2
CA62 A0:23 VDD!:4 7.42106e-18 $lvl1=3 $lvl2=2
CA63 A0:25 VDD! 3.6546e-18 $lvl1=2 $lvl2=1
CA64 A0:26 VDD!:3 3.39397e-18 $lvl1=2 $lvl2=2
CA65 A0:26 VDD! 2.28962e-18 $lvl1=2 $lvl2=1
CA66 A0:27 VDD!:19 2.18711e-18 $lvl1=1 $lvl2=1
CA67 A0:25 VDD!:3 1.10352e-17 $lvl1=2 $lvl2=2
CA68 A0:15 VDD!:3 2.53893e-16 $lvl1=3 $lvl2=2
CA69 A0:17 VDD!:3 1.29714e-17 $lvl1=3 $lvl2=2
CA70 A0:27 VDD!:3 1.20666e-17 $lvl1=1 $lvl2=2
CA71 A0:17 VDD! 1.06818e-17 $lvl1=3 $lvl2=1
CA72 A0 VDD! 2.25133e-17 $lvl1=1 $lvl2=1
CA73 A0:27 VDD! 1.34547e-17 $lvl1=1 $lvl2=1
CA74 A0:23 VDD!:3 2.54776e-16 $lvl1=3 $lvl2=2
CA75 A0:27 A1:27 9.52998e-18 $lvl1=1 $lvl2=1
CA76 A0 A1:28 9.09386e-18 $lvl1=1 $lvl2=1
CA77 A0:25 A1:27 8.21408e-18 $lvl1=2 $lvl2=1
CA78 A0:17 A1:17 6.07975e-18 $lvl1=3 $lvl2=3
CA79 A0:25 A1:25 4.04792e-18 $lvl1=2 $lvl2=2
CA80 A0:17 A1:25 3.43131e-18 $lvl1=3 $lvl2=2
CA81 A0:25 A1:17 3.18756e-18 $lvl1=2 $lvl2=3
CA82 A0:17 A1:23 2.71719e-18 $lvl1=3 $lvl2=3
CA83 Mmn0@1:g A1:17 2.19065e-18 $lvl1=3 $lvl2=3
CA84 A0:25 A1:28 1.91767e-18 $lvl1=2 $lvl2=1
CA85 A0:25 A1:26 1.86357e-18 $lvl1=2 $lvl2=2
CA86 A0:17 A1:27 1.61004e-18 $lvl1=3 $lvl2=1
CA87 A0 A1:25 1.54662e-18 $lvl1=1 $lvl2=2
CA88 A0:27 A1:28 1.20363e-18 $lvl1=1 $lvl2=1
CA89 A0 A1:27 1.09587e-17 $lvl1=1 $lvl2=1
ReA1 A0:27 A0:28 0.247596 $metal1  $L=0.515 $W=0.260000 $SI_W=0.26 $TYPE=10 $DIR=1 $LLX=0.330000 $LLY=1.950000 $URX=0.590000 $URY=2.465000 $lvl=1
ReA2 A0:28 A0 0.062500 $metal1  $L=0.13 $W=0.260000 $SI_W=0.26 $TYPE=10 $DIR=1 $LLX=0.330000 $LLY=1.820000 $URX=0.590000 $URY=1.950000 $lvl=1
ReA3 A0 A0:29 0.286058 $metal1  $L=0.595 $W=0.260000 $SI_W=0.26 $TYPE=10 $DIR=1 $LLX=0.345000 $LLY=1.225000 $URX=0.605000 $URY=1.820000 $lvl=1
RfA4 A0:25 A0:26 17.317646 $li  $L=0.23 $W=0.170000 $SI_W=0.17 $TYPE=10 $DIR=0 $LLX=0.460000 $LLY=1.865000 $URX=0.690000 $URY=2.035000 $lvl=2
RgA5 A0:15 Mmp0@1:g 282.773346 $poly  $L=0.88 $W=0.150000 $SI_W=0.15 $TYPE=10 $DIR=1 $LLX=0.830000 $LLY=3.015000 $URX=0.980000 $URY=3.895000 $lvl=3
RgA6 Mmp0@1:g A0:16 331.020203 $poly  $L=1.06475 $W=0.150000 $SI_W=0.15 $TYPE=10 $DIR=1 $LLX=0.830000 $LLY=1.950000 $URX=0.980000 $URY=3.015000 $lvl=3
RgA7 A0:16 A0:17 31.439547 $poly  $L=0.21525 $W=0.330000 $SI_W=0.33 $TYPE=10 $DIR=0 $LLX=0.690000 $LLY=1.785000 $URX=0.905000 $URY=2.115000 $lvl=3
RgA8 A0:17 A0:18 31.366514 $poly  $L=0.21475 $W=0.330000 $SI_W=0.33 $TYPE=10 $DIR=0 $LLX=0.475000 $LLY=1.785000 $URX=0.690000 $URY=2.115000 $lvl=3
RgA9 A0:18 A0:19 37.880966 $poly  $L=0.16475 $W=0.210000 $SI_W=0.21 $TYPE=10 $DIR=1 $LLX=0.340000 $LLY=1.785000 $URX=0.550000 $URY=1.950000 $lvl=3
RgA10 A0:19 Mmn0:g 324.604034 $poly  $L=1.01 $W=0.150000 $SI_W=0.15 $TYPE=10 $DIR=1 $LLX=0.400000 $LLY=0.775000 $URX=0.550000 $URY=1.785000 $lvl=3
RgA11 A0:16 A0:20 37.880966 $poly  $L=0.16475 $W=0.210000 $SI_W=0.21 $TYPE=10 $DIR=1 $LLX=0.830000 $LLY=1.785000 $URX=1.040000 $URY=1.950000 $lvl=3
RgA12 A0:20 Mmn0@1:g 324.604034 $poly  $L=1.01 $W=0.150000 $SI_W=0.15 $TYPE=10 $DIR=1 $LLX=0.830000 $LLY=0.775000 $URX=0.980000 $URY=1.785000 $lvl=3
RgA13 Mmn0@1:g A0:21 170.306671 $poly  $L=0.53 $W=0.150000 $SI_W=0.15 $TYPE=10 $DIR=1 $LLX=0.830000 $LLY=0.245000 $URX=0.980000 $URY=0.775000 $lvl=3
RgA14 A0:18 A0:22 37.766205 $poly  $L=0.16425 $W=0.210000 $SI_W=0.21 $TYPE=10 $DIR=1 $LLX=0.340000 $LLY=1.950500 $URX=0.550000 $URY=2.114500 $lvl=3
RgA15 A0:22 Mmp0:g 289.257385 $poly  $L=0.9 $W=0.150000 $SI_W=0.15 $TYPE=10 $DIR=1 $LLX=0.400000 $LLY=2.114500 $URX=0.550000 $URY=3.014500 $lvl=3
RgA16 Mmp0:g A0:23 282.773346 $poly  $L=0.88 $W=0.150000 $SI_W=0.15 $TYPE=10 $DIR=1 $LLX=0.400000 $LLY=3.015000 $URX=0.550000 $URY=3.895000 $lvl=3
RgA17 Mmn0:g A0:24 170.306671 $poly  $L=0.53 $W=0.150000 $SI_W=0.15 $TYPE=10 $DIR=1 $LLX=0.400000 $LLY=0.245000 $URX=0.550000 $URY=0.775000 $lvl=3
RjA18 A0:26 A0:28 152.000000 $mcon  $L=0.17 $W=0.17 $A=0.0289 $VC=0 $SAVL=0 $SAVC=0 $SI_A=0.0289 $COVER_DIR=0 $LLX=0.000000 $LLY=0.000000 $URX=0.170000 $URY=0.170000 $lvl=6
RiA19 A0:17 A0:25 7.500000 $licon  $A=0.0578 $VC=0 $SAVL=0 $SAVC=0 $SI_A=0.0578 $COVER_DIR=0 $LLX=0.000000 $LLY=0.000000 $URX=-0.057800 $URY=-2.000000 $lvl=7
*
*|NET VSS! 3.90692e-15
*|P (VSS! X 0 4.8250 0.0050) // $llx=4.8250 $lly=0.0050 $urx=4.8250 $ury=0.0050 $lvl=1
*|I (Mmn5:b Mmn5 b X 0 5.8150 0.7750) // $llx=5.8150 $lly=0.7750 $urx=5.8150 $ury=0.7750 $lvl=8
*|I (Mmn5@1:b Mmn5@1 b X 0 6.2450 0.7750) // $llx=6.2450 $lly=0.7750 $urx=6.2450 $ury=0.7750 $lvl=8
*|I (Mmn2:b Mmn2 b X 0 3.1450 0.7750) // $llx=3.1450 $lly=0.7750 $urx=3.1450 $ury=0.7750 $lvl=8
*|I (Mmn2@1:b Mmn2@1 b X 0 2.7150 0.7750) // $llx=2.7150 $lly=0.7750 $urx=2.7150 $ury=0.7750 $lvl=8
*|I (Mmn1:s Mmn1 s X 0 1.4105 0.7750) // $llx=1.4105 $lly=0.7750 $urx=1.4105 $ury=0.7750 $lvl=4
*|I (Mmn1:b Mmn1 b X 0 1.3350 0.7750) // $llx=1.3350 $lly=0.7750 $urx=1.3350 $ury=0.7750 $lvl=8
*|I (Mmn1@1:s Mmn1@1 s X 0 1.6895 0.7750) // $llx=1.6895 $lly=0.7750 $urx=1.6895 $ury=0.7750 $lvl=4
*|I (Mmn1@1:b Mmn1@1 b X 0 1.7650 0.7750) // $llx=1.7650 $lly=0.7750 $urx=1.7650 $ury=0.7750 $lvl=8
*|I (Mmn4:b Mmn4 b X 0 4.9550 0.7750) // $llx=4.9550 $lly=0.7750 $urx=4.9550 $ury=0.7750 $lvl=8
*|I (Mmn4@1:b Mmn4@1 b X 0 5.3850 0.7750) // $llx=5.3850 $lly=0.7750 $urx=5.3850 $ury=0.7750 $lvl=8
*|I (Mmn3:b Mmn3 b X 0 4.0050 0.7750) // $llx=4.0050 $lly=0.7750 $urx=4.0050 $ury=0.7750 $lvl=8
*|I (Mmn3@1:b Mmn3@1 b X 0 3.5750 0.7750) // $llx=3.5750 $lly=0.7750 $urx=3.5750 $ury=0.7750 $lvl=8
*|I (Mmn0:s Mmn0 s X 0 0.5505 0.7750) // $llx=0.5505 $lly=0.7750 $urx=0.5505 $ury=0.7750 $lvl=4
*|I (Mmn0:b Mmn0 b X 0 0.4750 0.7750) // $llx=0.4750 $lly=0.7750 $urx=0.4750 $ury=0.7750 $lvl=8
*|I (Mmn0@1:s Mmn0@1 s X 0 0.8295 0.7750) // $llx=0.8295 $lly=0.7750 $urx=0.8295 $ury=0.7750 $lvl=4
*|I (Mmn0@1:b Mmn0@1 b X 0 0.9050 0.7750) // $llx=0.9050 $lly=0.7750 $urx=0.9050 $ury=0.7750 $lvl=8
*|S (VSS!:1 1.5500 1.1550) // $llx=1.5500 $lly=1.1550 $urx=1.5500 $ury=1.1550 $lvl=2
*|S (VSS!:3 1.5500 0.7750) // $llx=1.5500 $lly=0.7750 $urx=1.5500 $ury=0.7750 $lvl=2
*|S (VSS!:4 1.5500 0.0000) // $llx=1.5500 $lly=0.0000 $urx=1.5500 $ury=0.0000 $lvl=2
*|S (VSS!:5 0.6900 0.0000) // $llx=0.6900 $lly=0.0000 $urx=0.6900 $ury=0.0000 $lvl=2
*|S (VSS!:6 0.0000 0.0000) // $llx=0.0000 $lly=0.0000 $urx=0.0000 $ury=0.0000 $lvl=2
*|S (VSS!:7 3.4500 0.0000) // $llx=3.4500 $lly=0.0000 $urx=3.4500 $ury=0.0000 $lvl=2
*|S (VSS!:8 3.4500 0.0000) // $llx=3.4500 $lly=0.0000 $urx=3.4500 $ury=0.0000 $lvl=4
*|S (VSS!:11 0.6900 0.7750) // $llx=0.6900 $lly=0.7750 $urx=0.6900 $ury=0.7750 $lvl=2
*|S (VSS!:12 0.6900 1.1550) // $llx=0.6900 $lly=1.1550 $urx=0.6900 $ury=1.1550 $lvl=2
*|S (VSS!:13 6.9000 0.0000) // $llx=6.9000 $lly=0.0000 $urx=6.9000 $ury=0.0000 $lvl=1
*|S (VSS!:14 3.4500 0.0000) // $llx=3.4500 $lly=0.0000 $urx=3.4500 $ury=0.0000 $lvl=1
*|S (VSS!:15 0.0000 0.0000) // $llx=0.0000 $lly=0.0000 $urx=0.0000 $ury=0.0000 $lvl=1
ReI191 VSS!:13 VSS! 0.648438 $metal1  $L=2.075 $W=0.400000 $SI_W=0.4 $TYPE=10 $DIR=0 $LLX=4.825000 $LLY=-0.199500 $URX=6.900000 $URY=0.200000 $lvl=1
ReI192 VSS! VSS!:14 0.429688 $metal1  $L=1.375 $W=0.400000 $SI_W=0.4 $TYPE=10 $DIR=0 $LLX=3.450000 $LLY=-0.199500 $URX=4.825000 $URY=0.200000 $lvl=1
ReI193 VSS!:14 VSS!:15 1.078125 $metal1  $L=3.45 $W=0.400000 $SI_W=0.4 $TYPE=10 $DIR=0 $LLX=0.000000 $LLY=-0.199500 $URX=3.450000 $URY=0.200000 $lvl=1
RfI194 VSS!:1 VSS!:3 28.611765 $li  $L=0.38 $W=0.170000 $SI_W=0.17 $TYPE=10 $DIR=1 $LLX=1.465000 $LLY=0.775000 $URX=1.635000 $URY=1.155000 $lvl=2
RfI195 VSS!:3 VSS!:4 55.328377 $li  $L=0.77475 $W=0.170000 $SI_W=0.17 $TYPE=10 $DIR=1 $LLX=1.465000 $LLY=0.000000 $URX=1.635000 $URY=0.775000 $lvl=2
RfI196 VSS!:4 VSS!:5 44.031998 $li  $L=0.86 $W=0.250000 $SI_W=0.25 $TYPE=10 $DIR=0 $LLX=0.690000 $LLY=-0.124500 $URX=1.550000 $URY=0.125000 $lvl=2
RfI197 VSS!:5 VSS!:6 35.340801 $li  $L=0.69025 $W=0.250000 $SI_W=0.25 $TYPE=10 $DIR=0 $LLX=0.000000 $LLY=-0.124500 $URX=0.690000 $URY=0.125000 $lvl=2
RfI198 VSS!:4 VSS!:7 97.267197 $li  $L=1.89975 $W=0.250000 $SI_W=0.25 $TYPE=10 $DIR=0 $LLX=1.550000 $LLY=-0.124500 $URX=3.450000 $URY=0.125000 $lvl=2
RfI199 VSS!:5 VSS!:11 55.328377 $li  $L=0.77475 $W=0.170000 $SI_W=0.17 $TYPE=10 $DIR=1 $LLX=0.605000 $LLY=0.000000 $URX=0.775000 $URY=0.775000 $lvl=2
RfI200 VSS!:11 VSS!:12 28.611765 $li  $L=0.38 $W=0.170000 $SI_W=0.17 $TYPE=10 $DIR=1 $LLX=0.605000 $LLY=0.775000 $URX=0.775000 $URY=1.155000 $lvl=2
RhI201 Mmn1:s VSS!:3 7.500000 $licon_diff  $A=0.0578 $VC=0 $SAVL=0 $SAVC=0 $SI_A=0.0578 $COVER_DIR=0 $LLX=0.000000 $LLY=0.000000 $URX=-0.057800 $URY=-2.000000 $lvl=5
RhI202 Mmn0:s VSS!:11 7.500000 $licon_diff  $A=0.0578 $VC=0 $SAVL=0 $SAVC=0 $SI_A=0.0578 $COVER_DIR=0 $LLX=0.000000 $LLY=0.000000 $URX=-0.057800 $URY=-2.000000 $lvl=5
Rh_3_I203 VSS!:8 VSS!:7 1.071429 $licon_diff  $A=0.4046 $VC=0 $SAVL=0 $SAVC=0 $SI_A=0.4046 $COVER_DIR=0 $LLX=0.000000 $LLY=0.000000 $URX=-0.404600 $URY=-14.000000 $lvl=5
RjI204 VSS!:7 VSS!:14 10.857142 $mcon  $A=0.4046 $VC=0 $SAVL=0 $SAVC=0 $SI_A=0.4046 $COVER_DIR=0 $LLX=0.000000 $LLY=0.000000 $URX=-0.404600 $URY=-14.000000 $lvl=6
RmwI205 Mmn5:b VSS! 0.001000 $FOX $W=1000000 $SI_W=1000000 $TYPE=1 $DIR=0
RmwI206 Mmn5@1:b VSS! 0.001000 $FOX $W=1000000 $SI_W=1000000 $TYPE=1 $DIR=0
RmwI207 Mmn2:b VSS! 0.001000 $FOX $W=1000000 $SI_W=1000000 $TYPE=1 $DIR=0
RmwI208 Mmn2@1:b VSS! 0.001000 $FOX $W=1000000 $SI_W=1000000 $TYPE=1 $DIR=0
RmwI209 Mmn1:b VSS! 0.001000 $FOX $W=1000000 $SI_W=1000000 $TYPE=1 $DIR=0
RmwI210 Mmn1@1:s Mmn1:s 0.001000 $diff $W=1000000 $SI_W=1000000 $TYPE=1 $DIR=0
RmwI211 Mmn1@1:b VSS! 0.001000 $FOX $W=1000000 $SI_W=1000000 $TYPE=1 $DIR=0
RmwI212 Mmn4:b VSS! 0.001000 $FOX $W=1000000 $SI_W=1000000 $TYPE=1 $DIR=0
RmwI213 Mmn4@1:b VSS! 0.001000 $FOX $W=1000000 $SI_W=1000000 $TYPE=1 $DIR=0
RmwI214 Mmn3:b VSS! 0.001000 $FOX $W=1000000 $SI_W=1000000 $TYPE=1 $DIR=0
RmwI215 Mmn3@1:b VSS! 0.001000 $FOX $W=1000000 $SI_W=1000000 $TYPE=1 $DIR=0
RmwI216 Mmn0:b VSS! 0.001000 $FOX $W=1000000 $SI_W=1000000 $TYPE=1 $DIR=0
RmwI217 Mmn0@1:s Mmn0:s 0.001000 $diff $W=1000000 $SI_W=1000000 $TYPE=1 $DIR=0
RmwI218 Mmn0@1:b VSS! 0.001000 $FOX $W=1000000 $SI_W=1000000 $TYPE=1 $DIR=0
*
*|NET Y 4.99404e-15
*|P (Y X 0 5.5350 1.9400) // $llx=5.5350 $lly=1.9400 $urx=5.5350 $ury=1.9400 $lvl=1
*|I (Mmp5:d Mmp5 d X 0 5.8905 3.0150) // $llx=5.8905 $lly=3.0150 $urx=5.8905 $ury=3.0150 $lvl=4
*|I (Mmp5@1:d Mmp5@1 d X 0 6.1695 3.0150) // $llx=6.1695 $lly=3.0150 $urx=6.1695 $ury=3.0150 $lvl=4
*|I (Mmp1:d Mmp1 d X 0 1.4105 3.0150) // $llx=1.4105 $lly=3.0150 $urx=1.4105 $ury=3.0150 $lvl=4
*|I (Mmp1@1:d Mmp1@1 d X 0 1.6895 3.0150) // $llx=1.6895 $lly=3.0150 $urx=1.6895 $ury=3.0150 $lvl=4
*|I (Mmp3:d Mmp3 d X 0 3.9295 3.0150) // $llx=3.9295 $lly=3.0150 $urx=3.9295 $ury=3.0150 $lvl=4
*|I (Mmp3@1:d Mmp3@1 d X 0 3.6505 3.0150) // $llx=3.6505 $lly=3.0150 $urx=3.6505 $ury=3.0150 $lvl=4
*|I (Mmn5:d Mmn5 d X 0 5.8905 0.7750) // $llx=5.8905 $lly=0.7750 $urx=5.8905 $ury=0.7750 $lvl=4
*|I (Mmn5@1:d Mmn5@1 d X 0 6.1695 0.7750) // $llx=6.1695 $lly=0.7750 $urx=6.1695 $ury=0.7750 $lvl=4
*|I (Mmn4:d Mmn4 d X 0 5.0305 0.7750) // $llx=5.0305 $lly=0.7750 $urx=5.0305 $ury=0.7750 $lvl=4
*|I (Mmn4@1:d Mmn4@1 d X 0 5.3095 0.7750) // $llx=5.3095 $lly=0.7750 $urx=5.3095 $ury=0.7750 $lvl=4
*|S (Y:1 1.5500 3.7450) // $llx=1.5500 $lly=3.7450 $urx=1.5500 $ury=3.7450 $lvl=2
*|S (Y:3 1.5500 3.0150) // $llx=1.5500 $lly=3.0150 $urx=1.5500 $ury=3.0150 $lvl=2
*|S (Y:4 1.5500 2.8800) // $llx=1.5500 $lly=2.8800 $urx=1.5500 $ury=2.8800 $lvl=2
*|S (Y:5 1.5500 2.2850) // $llx=1.5500 $lly=2.2850 $urx=1.5500 $ury=2.2850 $lvl=2
*|S (Y:6 3.7900 3.7450) // $llx=3.7900 $lly=3.7450 $urx=3.7900 $ury=3.7450 $lvl=2
*|S (Y:8 3.7900 3.0150) // $llx=3.7900 $lly=3.0150 $urx=3.7900 $ury=3.0150 $lvl=2
*|S (Y:9 3.7900 2.8800) // $llx=3.7900 $lly=2.8800 $urx=3.7900 $ury=2.8800 $lvl=2
*|S (Y:10 3.7900 2.2850) // $llx=3.7900 $lly=2.2850 $urx=3.7900 $ury=2.2850 $lvl=2
*|S (Y:11 5.1700 1.1550) // $llx=5.1700 $lly=1.1550 $urx=5.1700 $ury=1.1550 $lvl=2
*|S (Y:12 5.1700 0.8700) // $llx=5.1700 $lly=0.8700 $urx=5.1700 $ury=0.8700 $lvl=2
*|S (Y:14 5.1700 0.7750) // $llx=5.1700 $lly=0.7750 $urx=5.1700 $ury=0.7750 $lvl=2
*|S (Y:15 5.1700 0.3950) // $llx=5.1700 $lly=0.3950 $urx=5.1700 $ury=0.3950 $lvl=2
*|S (Y:16 6.0300 3.7450) // $llx=6.0300 $lly=3.7450 $urx=6.0300 $ury=3.7450 $lvl=2
*|S (Y:18 6.0300 3.0150) // $llx=6.0300 $lly=3.0150 $urx=6.0300 $ury=3.0150 $lvl=2
*|S (Y:19 6.0300 2.8800) // $llx=6.0300 $lly=2.8800 $urx=6.0300 $ury=2.8800 $lvl=2
*|S (Y:20 6.0300 2.2850) // $llx=6.0300 $lly=2.2850 $urx=6.0300 $ury=2.2850 $lvl=2
*|S (Y:21 6.0300 1.1550) // $llx=6.0300 $lly=1.1550 $urx=6.0300 $ury=1.1550 $lvl=2
*|S (Y:22 6.0300 0.8700) // $llx=6.0300 $lly=0.8700 $urx=6.0300 $ury=0.8700 $lvl=2
*|S (Y:24 6.0300 0.7750) // $llx=6.0300 $lly=0.7750 $urx=6.0300 $ury=0.7750 $lvl=2
*|S (Y:25 6.0300 0.3950) // $llx=6.0300 $lly=0.3950 $urx=6.0300 $ury=0.3950 $lvl=2
*|S (Y:26 6.0300 2.8800) // $llx=6.0300 $lly=2.8800 $urx=6.0300 $ury=2.8800 $lvl=1
*|S (Y:27 5.9150 2.8050) // $llx=5.9150 $lly=2.8050 $urx=5.9150 $ury=2.8050 $lvl=1
*|S (Y:28 5.5200 2.8050) // $llx=5.5200 $lly=2.8050 $urx=5.5200 $ury=2.8050 $lvl=1
*|S (Y:29 3.7900 2.8800) // $llx=3.7900 $lly=2.8800 $urx=3.7900 $ury=2.8800 $lvl=1
*|S (Y:30 3.6750 2.8050) // $llx=3.6750 $lly=2.8050 $urx=3.6750 $ury=2.8050 $lvl=1
*|S (Y:31 1.6645 2.8050) // $llx=1.6645 $lly=2.8050 $urx=1.6645 $ury=2.8050 $lvl=1
*|S (Y:32 1.5500 2.8800) // $llx=1.5500 $lly=2.8800 $urx=1.5500 $ury=2.8800 $lvl=1
*|S (Y:33 5.5200 0.9450) // $llx=5.5200 $lly=0.9450 $urx=5.5200 $ury=0.9450 $lvl=1
*|S (Y:34 5.2845 0.9450) // $llx=5.2845 $lly=0.9450 $urx=5.2845 $ury=0.9450 $lvl=1
*|S (Y:35 5.1700 0.8700) // $llx=5.1700 $lly=0.8700 $urx=5.1700 $ury=0.8700 $lvl=1
*|S (Y:36 5.9150 0.9450) // $llx=5.9150 $lly=0.9450 $urx=5.9150 $ury=0.9450 $lvl=1
*|S (Y:37 6.0300 0.8700) // $llx=6.0300 $lly=0.8700 $urx=6.0300 $ury=0.8700 $lvl=1
CG1 Mmn4:d VSS! 1.66986e-18 $lvl=4
CG2 Mmn5:d VSS! 3.26561e-19 $lvl=4
CG3 Mmp3:d VSS! 1.7244e-18 $lvl=4
CG4 Mmp1:d VSS! 2.67641e-18 $lvl=4
CG5 Mmp5:d VSS! 2.44301e-18 $lvl=4
CG6 Y:21 VSS! 4.48293e-18 $lvl=2
CG7 Y:25 VSS! 1.04705e-18 $lvl=2
CG8 Y:16 VSS! 8.29538e-18 $lvl=2
CG9 Y:20 VSS! 3.7929e-18 $lvl=2
CG10 Y:11 VSS! 7.99288e-18 $lvl=2
CG11 Y:15 VSS! 1.58159e-18 $lvl=2
CG12 Y:6 VSS! 9.80575e-18 $lvl=2
CG13 Y:10 VSS! 6.97883e-18 $lvl=2
CG14 Y:1 VSS! 1.37815e-17 $lvl=2
CG15 Y:5 VSS! 1.04356e-17 $lvl=2
CG16 Y:36 VSS! 6.0129e-18 $lvl=1
CG17 Y:34 VSS! 8.50655e-18 $lvl=1
CG18 Y:31 VSS! 1.65477e-17 $lvl=1
CG19 Y:30 VSS! 1.76167e-17 $lvl=1
CG20 Y:27 VSS! 5.45263e-18 $lvl=1
CG21 Y:28 VSS! 8.60133e-18 $lvl=1
CG22 Y:33 VSS! 8.74656e-18 $lvl=1
CG23 Y:4 VSS! 3.40135e-18 $lvl=2
CG24 Y:9 VSS! 2.38104e-18 $lvl=2
CG25 Y:12 VSS! 1.82288e-18 $lvl=2
CG26 Y:22 VSS! 1.3328e-18 $lvl=2
CG27 Y:19 VSS! 1.61723e-18 $lvl=2
CG28 Y VSS! 1.15419e-17 $lvl=1
CG29 Y:28 n4 9.79557e-18 $lvl1=1 $lvl2=2
CG30 Y:16 n4:17 7.76647e-18 $lvl1=2 $lvl2=1
CG31 Y:16 n4:19 7.60458e-18 $lvl1=2 $lvl2=1
CG32 Y:30 n4 7.10939e-18 $lvl1=1 $lvl2=2
CG33 Y:19 n4:6 4.43846e-18 $lvl1=2 $lvl2=2
CG34 Y:19 n4:11 4.24037e-18 $lvl1=2 $lvl2=2
CG35 Y:16 n4:15 4.0307e-18 $lvl1=2 $lvl2=2
CG36 Y:20 n4:11 3.88913e-18 $lvl1=2 $lvl2=2
CG37 Y:16 n4:10 3.68343e-18 $lvl1=2 $lvl2=2
CG38 Y:20 n4:15 3.58794e-18 $lvl1=2 $lvl2=2
CG39 Y:27 n4:11 3.58143e-18 $lvl1=1 $lvl2=2
CG40 Y:20 n4:6 3.51655e-18 $lvl1=2 $lvl2=2
CG41 Y:20 n4:10 3.47545e-18 $lvl1=2 $lvl2=2
CG42 Y n4:10 3.26361e-18 $lvl1=1 $lvl2=2
CG43 Y:19 n4:17 2.77363e-18 $lvl1=2 $lvl2=1
CG44 Y:28 n4:7 2.59107e-18 $lvl1=1 $lvl2=2
CG45 Y:16 n4:7 2.46232e-18 $lvl1=2 $lvl2=2
CG46 Y:28 n4:10 2.36577e-18 $lvl1=1 $lvl2=2
CG47 Y:16 n4:12 2.3167e-18 $lvl1=2 $lvl2=2
CG48 Y:28 n4:17 2.0297e-18 $lvl1=1 $lvl2=1
CG49 Y:19 n4:19 1.98716e-18 $lvl1=2 $lvl2=1
CG50 Mmp5:d n4:6 1.98356e-18 $lvl1=4 $lvl2=2
CG51 Y n4:6 1.96237e-18 $lvl1=1 $lvl2=2
CG52 Y:28 n4:2 1.91913e-18 $lvl1=1 $lvl2=2
CG53 Y:27 n4:6 1.8959e-18 $lvl1=1 $lvl2=2
CG54 Y:19 n4:7 1.55253e-18 $lvl1=2 $lvl2=2
CG55 Y:19 n4:12 1.33261e-18 $lvl1=2 $lvl2=2
CG56 Y:16 Mmp5@1:s 1.30446e-18 $lvl1=2 $lvl2=4
CG57 Mmp5:d n4:11 1.2642e-18 $lvl1=4 $lvl2=2
CG58 Y:30 n4:2 1.22289e-18 $lvl1=1 $lvl2=2
CG59 Y:30 n4:19 1.18684e-18 $lvl1=1 $lvl2=1
CG60 Y:30 n4:5 1.07982e-18 $lvl1=1 $lvl2=2
CG61 Y:28 n4:5 8.06065e-19 $lvl1=1 $lvl2=2
CG62 Y:27 n4:7 7.3566e-19 $lvl1=1 $lvl2=2
CG63 Y:27 n4:12 7.11864e-19 $lvl1=1 $lvl2=2
CG64 Y:27 n4:15 7.09485e-19 $lvl1=1 $lvl2=2
CG65 Y:16 n4:6 9.28644e-17 $lvl1=2 $lvl2=2
CG66 Y:30 n4:20 1.51585e-17 $lvl1=1 $lvl2=1
CG67 Y:28 n4:6 1.50612e-17 $lvl1=1 $lvl2=2
CG68 Y:28 n4:19 4.66115e-17 $lvl1=1 $lvl2=1
CG69 Y:28 n4:20 4.09641e-17 $lvl1=1 $lvl2=1
CG70 Y:27 n4:17 3.33323e-17 $lvl1=1 $lvl2=1
CG71 Y:16 n4:11 1.00321e-16 $lvl1=2 $lvl2=2
CG72 Y:27 n4:19 2.76664e-17 $lvl1=1 $lvl2=1
CG73 Y:22 n0:17 7.90978e-18 $lvl1=2 $lvl2=2
CG74 Y:22 n0:13 7.24038e-18 $lvl1=2 $lvl2=2
CG75 Y:15 n0:9 6.16598e-18 $lvl1=2 $lvl2=2
CG76 Y:25 n0:17 5.04744e-18 $lvl1=2 $lvl2=2
CG77 Y:15 n0:13 5.00656e-18 $lvl1=2 $lvl2=2
CG78 Y:25 n0:13 4.93816e-18 $lvl1=2 $lvl2=2
CG79 Y:21 n0:16 4.70432e-18 $lvl1=2 $lvl2=2
CG80 Y:11 n0:16 4.60132e-18 $lvl1=2 $lvl2=2
CG81 Y:21 n0:20 4.31266e-18 $lvl1=2 $lvl2=2
CG82 Y:34 n0:9 2.91481e-18 $lvl1=1 $lvl2=2
CG83 Y:33 n0:16 2.86289e-18 $lvl1=1 $lvl2=2
CG84 Y:12 n0:9 2.65559e-18 $lvl1=2 $lvl2=2
CG85 Y:22 n0:20 2.62675e-18 $lvl1=2 $lvl2=2
CG86 Y:22 n0:16 2.61545e-18 $lvl1=2 $lvl2=2
CG87 Y:15 n0:24 2.56195e-18 $lvl1=2 $lvl2=1
CG88 Y:36 n0:17 2.52391e-18 $lvl1=1 $lvl2=2
CG89 Y:25 n0:20 2.37809e-18 $lvl1=2 $lvl2=2
CG90 Y:12 n0:13 2.33297e-18 $lvl1=2 $lvl2=2
CG91 Y:15 n0:16 2.31269e-18 $lvl1=2 $lvl2=2
CG92 Y:21 n0:24 2.28622e-18 $lvl1=2 $lvl2=1
CG93 Y:22 n0:22 2.25069e-18 $lvl1=2 $lvl2=1
CG94 Y:36 n0:13 2.24515e-18 $lvl1=1 $lvl2=2
CG95 Y:25 n0:16 2.22386e-18 $lvl1=2 $lvl2=2
CG96 Y:21 n0:22 2.06764e-18 $lvl1=2 $lvl2=1
CG97 Y:12 n0:26 1.95185e-18 $lvl1=2 $lvl2=1
CG98 Y:25 n0:22 1.94005e-18 $lvl1=2 $lvl2=1
CG99 Y:22 n0:24 1.69288e-18 $lvl1=2 $lvl2=1
CG100 Y:25 n0:24 1.68142e-18 $lvl1=2 $lvl2=1
CG101 Y:12 n0:12 1.65987e-18 $lvl1=2 $lvl2=2
CG102 Y:12 n0:24 1.61126e-18 $lvl1=2 $lvl2=1
CG103 Y:12 n0:16 1.58359e-18 $lvl1=2 $lvl2=2
CG104 Y:11 n0:24 1.5691e-18 $lvl1=2 $lvl2=1
CG105 Y:33 n0:26 1.44537e-18 $lvl1=1 $lvl2=1
CG106 Mmn5:d n0:17 1.44478e-18 $lvl1=4 $lvl2=2
CG107 Y:15 n0:26 1.34376e-18 $lvl1=2 $lvl2=1
CG108 Y:11 n0:12 1.22669e-18 $lvl1=2 $lvl2=2
CG109 Y:36 n0:20 1.18447e-18 $lvl1=1 $lvl2=2
CG110 Y:34 n0:12 1.12572e-18 $lvl1=1 $lvl2=2
CG111 Y:33 n0:22 1.11612e-18 $lvl1=1 $lvl2=1
CG112 Y:36 n0:16 9.47046e-19 $lvl1=1 $lvl2=2
CG113 Y:11 Mmn5:s 8.68485e-19 $lvl1=2 $lvl2=4
CG114 Y:21 Mmn5:s 8.28019e-19 $lvl1=2 $lvl2=4
CG115 Y:36 n0:24 2.82964e-17 $lvl1=1 $lvl2=1
CG116 Y:21 n0:13 4.07488e-17 $lvl1=2 $lvl2=2
CG117 Y:11 n0:13 4.23049e-17 $lvl1=2 $lvl2=2
CG118 Y:36 n0:22 3.3526e-17 $lvl1=1 $lvl2=1
CG119 Y:34 n0:26 3.34102e-17 $lvl1=1 $lvl2=1
CG120 Y:21 n0:17 4.01849e-17 $lvl1=2 $lvl2=2
CG121 Y:34 n0:24 2.38474e-17 $lvl1=1 $lvl2=1
CG122 Y:33 n0:13 1.17927e-17 $lvl1=1 $lvl2=2
CG123 Y:33 n0:24 3.56772e-17 $lvl1=1 $lvl2=1
CG124 Y:11 n0:9 4.63719e-17 $lvl1=2 $lvl2=2
CG125 Y:6 n3:17 8.24478e-18 $lvl1=2 $lvl2=1
CG126 Y:6 n3:19 7.63949e-18 $lvl1=2 $lvl2=1
CG127 Y:30 n3 4.52382e-18 $lvl1=1 $lvl2=2
CG128 Y:10 n3:15 4.39361e-18 $lvl1=2 $lvl2=2
CG129 Y:6 n3:10 4.06472e-18 $lvl1=2 $lvl2=2
CG130 Y:6 n3:15 3.92942e-18 $lvl1=2 $lvl2=2
CG131 Y:10 n3:10 3.89057e-18 $lvl1=2 $lvl2=2
CG132 Y:10 n3:11 3.58127e-18 $lvl1=2 $lvl2=2
CG133 Y:10 n3:6 3.3189e-18 $lvl1=2 $lvl2=2
CG134 Y:30 n3:7 3.2882e-18 $lvl1=1 $lvl2=2
CG135 Y:30 n3:12 3.11727e-18 $lvl1=1 $lvl2=2
CG136 Y:31 n3:2 3.05928e-18 $lvl1=1 $lvl2=2
CG137 Y:9 n3:11 3.0107e-18 $lvl1=2 $lvl2=2
CG138 Y:30 n3:15 2.75425e-18 $lvl1=1 $lvl2=2
CG139 Y:9 n3:6 2.71303e-18 $lvl1=2 $lvl2=2
CG140 Y:6 n3:12 2.52687e-18 $lvl1=2 $lvl2=2
CG141 Y:6 n3:7 2.39627e-18 $lvl1=2 $lvl2=2
CG142 Y:28 n3:17 1.87726e-18 $lvl1=1 $lvl2=1
CG143 Y:31 n3:5 1.75627e-18 $lvl1=1 $lvl2=2
CG144 Y:31 n3:19 1.72979e-18 $lvl1=1 $lvl2=1
CG145 Y:9 n3:19 1.71789e-18 $lvl1=2 $lvl2=1
CG146 Y:9 n3:17 1.66084e-18 $lvl1=2 $lvl2=1
CG147 Y:28 n3:11 1.57055e-18 $lvl1=1 $lvl2=2
CG148 Y:30 n3:10 1.49065e-18 $lvl1=1 $lvl2=2
CG149 Y:9 n3:7 1.47961e-18 $lvl1=2 $lvl2=2
CG150 Y:30 n3:17 6.77568e-17 $lvl1=1 $lvl2=1
CG151 Y:30 n3:19 7.99872e-17 $lvl1=1 $lvl2=1
CG152 Y:30 n3:20 1.94549e-17 $lvl1=1 $lvl2=1
CG153 Y:31 n3 1.39025e-17 $lvl1=1 $lvl2=2
CG154 Y:6 n3:6 9.51111e-17 $lvl1=2 $lvl2=2
CG155 Y:31 n3:20 3.96426e-17 $lvl1=1 $lvl2=1
CG156 Y:6 n3:11 9.57599e-17 $lvl1=2 $lvl2=2
CG157 Y:30 n3:6 1.38682e-17 $lvl1=1 $lvl2=2
CG158 Y:30 n3:11 1.5131e-17 $lvl1=1 $lvl2=2
CG159 Y:1 n2:19 8.49523e-18 $lvl1=2 $lvl2=1
CG160 Y:1 n2:17 7.45753e-18 $lvl1=2 $lvl2=1
CG161 Y:4 n2:11 4.30706e-18 $lvl1=2 $lvl2=2
CG162 Y:5 n2:15 4.25347e-18 $lvl1=2 $lvl2=2
CG163 Y:5 n2:10 3.88895e-18 $lvl1=2 $lvl2=2
CG164 Y:4 n2:6 3.87605e-18 $lvl1=2 $lvl2=2
CG165 Y:5 n2:11 3.64544e-18 $lvl1=2 $lvl2=2
CG166 Y:1 n2:15 3.61411e-18 $lvl1=2 $lvl2=2
CG167 Y:5 n2:6 3.37316e-18 $lvl1=2 $lvl2=2
CG168 Y:1 n2:10 3.24926e-18 $lvl1=2 $lvl2=2
CG169 Y:31 n2:12 3.03018e-18 $lvl1=1 $lvl2=2
CG170 Y:4 n2:19 2.99693e-18 $lvl1=2 $lvl2=1
CG171 Y:31 n2:6 2.71132e-18 $lvl1=1 $lvl2=2
CG172 Y:1 n2:12 2.67565e-18 $lvl1=2 $lvl2=2
CG173 Y:31 n2:15 2.6161e-18 $lvl1=1 $lvl2=2
CG174 Y:1 n2:7 2.41696e-18 $lvl1=2 $lvl2=2
CG175 Y:31 n2:20 1.97848e-18 $lvl1=1 $lvl2=1
CG176 Y:4 n2:17 1.91601e-18 $lvl1=2 $lvl2=1
CG177 Y:4 n2:12 1.60852e-18 $lvl1=2 $lvl2=2
CG178 Y:31 n2:11 1.53379e-17 $lvl1=1 $lvl2=2
CG179 Y:1 n2:6 9.45868e-17 $lvl1=2 $lvl2=2
CG180 Y:31 n2:17 6.74372e-17 $lvl1=1 $lvl2=1
CG181 Y:1 n2:11 9.43137e-17 $lvl1=2 $lvl2=2
CG182 Y:31 n2:19 3.43302e-17 $lvl1=1 $lvl2=1
CG183 Y:34 n1:32 2.29244e-18 $lvl1=1 $lvl2=1
CG184 Y:21 VSS!:4 7.6329e-18 $lvl1=2 $lvl2=2
CG185 Y:11 VSS!:4 7.31e-18 $lvl1=2 $lvl2=2
CG186 Y:34 VSS!:14 3.06962e-18 $lvl1=1 $lvl2=1
CG187 Y:36 VSS!:14 2.86824e-18 $lvl1=1 $lvl2=1
CG188 Y:15 VSS!:7 2.55027e-18 $lvl1=2 $lvl2=2
CG189 Mmn4:d VSS!:4 2.38539e-18 $lvl1=4 $lvl2=2
CG190 Y:25 VSS!:7 2.38406e-18 $lvl1=2 $lvl2=2
CG191 Y:15 VSS!:14 2.0395e-18 $lvl1=2 $lvl2=1
CG192 Mmn5:d VSS!:4 1.99836e-18 $lvl1=4 $lvl2=2
CG193 Y:21 VSS!:7 1.93429e-18 $lvl1=2 $lvl2=2
CG194 Y:11 VSS!:14 1.88862e-18 $lvl1=2 $lvl2=1
CG195 Y:25 VSS!:14 1.4275e-18 $lvl1=2 $lvl2=1
CG196 Y:31 VSS!:14 1.38365e-18 $lvl1=1 $lvl2=1
CG197 Y:11 VSS!:7 1.34455e-18 $lvl1=2 $lvl2=2
CG198 Y:15 VSS!:4 1.19181e-17 $lvl1=2 $lvl2=2
CG199 Y:25 VSS!:4 1.22614e-17 $lvl1=2 $lvl2=2
CG200 Y:6 VDD! 9.04089e-18 $lvl1=2 $lvl2=1
CG201 Y:30 VDD!:19 8.89642e-18 $lvl1=1 $lvl2=1
CG202 Y:30 VDD! 8.14491e-18 $lvl1=1 $lvl2=1
CG203 Y:31 VDD! 7.54492e-18 $lvl1=1 $lvl2=1
CG204 Y:16 VDD!:17 7.29904e-18 $lvl1=2 $lvl2=2
CG205 Y:16 VDD!:19 7.16496e-18 $lvl1=2 $lvl2=1
CG206 Y:6 VDD!:19 7.11843e-18 $lvl1=2 $lvl2=1
CG207 Y:28 VDD! 6.70025e-18 $lvl1=1 $lvl2=1
CG208 Y:1 VDD! 6.69712e-18 $lvl1=2 $lvl2=1
CG209 Y:1 VDD!:19 6.37257e-18 $lvl1=2 $lvl2=1
CG210 Y:27 VDD! 6.22568e-18 $lvl1=1 $lvl2=1
CG211 Y:31 VDD!:19 5.62559e-18 $lvl1=1 $lvl2=1
CG212 Y:36 VDD! 5.41219e-18 $lvl1=1 $lvl2=1
CG213 Y VDD! 5.02728e-18 $lvl1=1 $lvl2=1
CG214 Y:28 VDD!:19 4.75174e-18 $lvl1=1 $lvl2=1
CG215 Y:33 VDD! 4.11243e-18 $lvl1=1 $lvl2=1
CG216 Y:16 VDD! 3.61074e-18 $lvl1=2 $lvl2=1
CG217 Y:1 VDD!:10 2.72044e-18 $lvl1=2 $lvl2=2
CG218 Y:27 VDD!:19 2.61512e-18 $lvl1=1 $lvl2=1
CG219 Y:31 VDD!:9 2.33665e-18 $lvl1=1 $lvl2=2
CG220 Y:6 VDD!:10 2.18686e-18 $lvl1=2 $lvl2=2
CG221 Y:16 VDD!:10 2.16401e-18 $lvl1=2 $lvl2=2
CG222 Y:34 VDD! 1.90097e-18 $lvl1=1 $lvl2=1
CG223 Y VDD!:16 1.86703e-18 $lvl1=1 $lvl2=2
CG224 Y:1 VDD!:6 1.86063e-18 $lvl1=2 $lvl2=2
CG225 Mmp3:d VDD!:6 1.72848e-18 $lvl1=4 $lvl2=2
CG226 Mmp1:d VDD!:4 1.30085e-18 $lvl1=4 $lvl2=2
CG227 Y:1 VDD!:4 1.80512e-17 $lvl1=2 $lvl2=2
CG228 Y:6 VDD!:6 2.19774e-17 $lvl1=2 $lvl2=2
CG229 Y:28 VDD!:16 1.87736e-17 $lvl1=1 $lvl2=2
CG230 Y:30 VDD!:9 1.50573e-17 $lvl1=1 $lvl2=2
CG231 Y:16 VDD!:6 1.53569e-17 $lvl1=2 $lvl2=2