*
*|DSPF 1.5
*
*|DATE "Wed Jan  8 20:09:51 2025"
*|VENDOR "Cadence Design Systems"
*|PROGRAM "Cadence Quantus Extraction"
*|VERSION "22.1.0-p089 Linux 64 bit - (Thu Jan 19 11:47:08 PST 2023)"
*|DESIGN OAI221X1_HS
*|DIVIDER /
*|DELIMITER :
*|DeviceFingerDelim "@"
*|BUSBIT []
*|GLOBAL_TEMPERATURE 25
*|OPERATING_TEMPERATURE 25

** *VIA_COVERAGE_CODES
** *index FF FS FP FU SF SS SP SU PF PS PP PU UF US UP UU X_by_Y
** * "FF" stands for Full landing and Full coverage
** *0 0 0 0 0 0 0 0 0 0 0 0 0 0 0 0 0
** *1 0 0 0 0 0 0 0 0 0 0 0 0 0 0 0 1 1x1
** *2 0 0 0 0 0 0 0 0 0 0 0 0 0 0 1 0 1x1
** *3 0 0 0 0 0 0 0 0 0 0 0 0 0 1 0 0 1x1
** *4 0 0 0 0 0 0 0 0 0 0 0 0 1 0 0 0 1x1
** *5 0 0 0 0 0 0 0 0 0 0 0 1 0 0 0 0 1x1
** *6 0 0 0 0 0 0 0 0 0 0 1 0 0 0 0 0 1x1
** *7 0 0 0 0 0 0 0 0 0 1 0 0 0 0 0 0 1x1
** *8 0 0 0 0 0 0 0 0 1 0 0 0 0 0 0 0 1x1
** *9 0 0 0 0 0 0 0 1 0 0 0 0 0 0 0 0 1x1
** *10 0 0 0 0 0 0 1 0 0 0 0 0 0 0 0 0 1x1
** *11 0 0 0 0 0 1 0 0 0 0 0 0 0 0 0 0 1x1
** *12 0 0 0 0 1 0 0 0 0 0 0 0 0 0 0 0 1x1
** *13 0 0 0 1 0 0 0 0 0 0 0 0 0 0 0 0 1x1
** *14 0 0 1 0 0 0 0 0 0 0 0 0 0 0 0 0 1x1
** *15 0 1 0 0 0 0 0 0 0 0 0 0 0 0 0 0 1x1
** *16 1 0 0 0 0 0 0 0 0 0 0 0 0 0 0 0 1x1

** *RESISTOR_TYPES
** *1 SHORTING_ELEMENT
** *2 PRES_NG
** *3 PRES_PG
** *4 PRES_NF
** *5 PRES_PF
** *6 TCN_NDIFF
** *7 TCN_PDIFF
** *8 TCN_NFIELD
** *9 TCN_PFIELD
** *10 QUALITY_EXTRACTED
** *11 GCNLAND
** *12 TCNLAND
** *13 DUMMY
** *14 RSD
** *15 BRIDGE

** *RESISTOR_CURRENT_DIRECTION
** *0 HORIZONTAL
** *1 VERTICAL
** *2 45 DEGREE

** QRC_TECH_DIR /vols/wfo_devel/projects/reference_SKY130/tech/sky130_release_0.0.4/quantus/extraction/typical 
** HIERARCHICAL_SPLIT_PINS_DELIMITER '%'
** caps2d version: 10
*
.SUBCKT  OAI221X1_HS A0 A1 B0 B1 C0 Y
*
*Net Section
*
*|GROUND_NET VSS!
*
*LAYER_MAP
*0 none
*1 metal1
*2 li
*3 poly
*4 diff
*5 licon_diff
*6 mcon
*7 licon
*8 FOX

*|NET B0 1.24485e-15
*|P (B0 X 0 1.8550 1.8150) // $llx=1.8550 $lly=1.8150 $urx=1.8550 $ury=1.8150 $lvl=1
*|I (Mmp2:g Mmp2 g X 0 1.7650 3.0150) // $llx=1.7650 $lly=3.0150 $urx=1.7650 $ury=3.0150 $lvl=3
*|I (Mmn2:g Mmn2 g X 0 1.7650 0.7750) // $llx=1.7650 $lly=0.7750 $urx=1.7650 $ury=0.7750 $lvl=3
*|S (B0:8 1.7650 3.8950) // $llx=1.7650 $lly=3.8950 $urx=1.7650 $ury=3.8950 $lvl=3
*|S (B0:9 1.7650 1.9500) // $llx=1.7650 $lly=1.9500 $urx=1.7650 $ury=1.9500 $lvl=3
*|S (B0:10 1.7650 1.7850) // $llx=1.7650 $lly=1.7850 $urx=1.7650 $ury=1.7850 $lvl=3
*|S (B0:11 1.7650 0.2450) // $llx=1.7650 $lly=0.2450 $urx=1.7650 $ury=0.2450 $lvl=3
*|S (B0:12 2.0050 1.9500) // $llx=2.0050 $lly=1.9500 $urx=2.0050 $ury=1.9500 $lvl=2
*|S (B0:13 1.8400 1.9500) // $llx=1.8400 $lly=1.9500 $urx=1.8400 $ury=1.9500 $lvl=2
*|S (B0:14 1.7650 1.9500) // $llx=1.7650 $lly=1.9500 $urx=1.7650 $ury=1.9500 $lvl=2
*|S (B0:15 1.5550 1.9500) // $llx=1.5550 $lly=1.9500 $urx=1.5550 $ury=1.9500 $lvl=2
*|S (B0:16 1.8400 2.4600) // $llx=1.8400 $lly=2.4600 $urx=1.8400 $ury=2.4600 $lvl=1
*|S (B0:17 1.8400 1.9500) // $llx=1.8400 $lly=1.9500 $urx=1.8400 $ury=1.9500 $lvl=1
*|S (B0:18 1.8400 1.2200) // $llx=1.8400 $lly=1.2200 $urx=1.8400 $ury=1.2200 $lvl=1
CC1 Mmn2:g VSS! 4.20826e-18 $lvl=3
CC2 B0:8 VSS! 3.05005e-18 $lvl=3
CC3 B0:16 VSS! 6.25027e-18 $lvl=1
CC4 B0:18 VSS! 1.04851e-17 $lvl=1
CC5 B0:12 VSS! 5.99202e-18 $lvl=2
CC6 B0:15 VSS! 5.33096e-18 $lvl=2
CC7 B0:13 VSS! 5.97655e-18 $lvl=2
CC8 B0:9 VSS! 1.90009e-17 $lvl=3
CC9 B0:9 net123:4 3.05572e-18 $lvl1=3 $lvl2=2
CC10 B0:12 net123:4 2.55845e-18 $lvl1=2 $lvl2=2
CC11 B0:15 net123:3 2.09463e-18 $lvl1=2 $lvl2=2
CC12 B0:16 net123:4 1.56614e-18 $lvl1=1 $lvl2=2
CC13 B0:13 net123:4 1.53172e-18 $lvl1=2 $lvl2=2
CC14 B0:12 net123:3 1.42589e-18 $lvl1=2 $lvl2=2
CC15 B0:8 net123 1.29984e-18 $lvl1=3 $lvl2=2
CC16 B0:16 net123:3 6.10015e-18 $lvl1=1 $lvl2=2
CC17 B0:8 net123:3 1.87803e-16 $lvl1=3 $lvl2=2
CC18 B0:9 net123:3 5.86904e-18 $lvl1=3 $lvl2=2
CC19 B0:15 net123:4 6.68811e-18 $lvl1=2 $lvl2=2
CC20 B0:18 net132:3 2.59635e-18 $lvl1=1 $lvl2=2
CC21 B0:18 net132:14 1.19462e-18 $lvl1=1 $lvl2=1
CC22 Mmn2:g net132:3 1.28075e-16 $lvl1=3 $lvl2=2
CC23 B0:18 net128:19 4.16995e-18 $lvl1=1 $lvl2=1
CC24 B0:18 net128:12 3.34613e-18 $lvl1=1 $lvl2=2
CC25 B0:18 net128:11 2.7633e-18 $lvl1=1 $lvl2=2
CC26 Mmn2:g net128:11 1.27132e-16 $lvl1=3 $lvl2=2
CC27 B0:18 net128:17 3.821e-17 $lvl1=1 $lvl2=1
CC28 Mmn2:g VSS!:4 9.3507e-18 $lvl1=3 $lvl2=2
CC29 B0:18 VDD! 5.52745e-18 $lvl1=1 $lvl2=1
CC30 B0:16 VDD! 3.6315e-18 $lvl1=1 $lvl2=1
CC31 B0:9 VDD! 3.21358e-18 $lvl1=3 $lvl2=1
CC32 B0:13 VDD!:12 2.15005e-18 $lvl1=2 $lvl2=2
CC33 B0:16 VDD!:15 1.09403e-18 $lvl1=1 $lvl2=1
CC34 B0:12 VDD!:12 9.19623e-18 $lvl1=2 $lvl2=2
CC35 B0:16 VDD!:12 1.05823e-17 $lvl1=1 $lvl2=2
CC36 B0:9 VDD!:12 6.25431e-18 $lvl1=3 $lvl2=2
CC37 B0:8 VDD!:4 1.06706e-17 $lvl1=3 $lvl2=2
CC38 B0:8 VDD!:12 2.56568e-16 $lvl1=3 $lvl2=2
CC39 B0:16 Y:17 4.88784e-18 $lvl1=1 $lvl2=1
CC40 B0:16 Y:15 3.03726e-18 $lvl1=1 $lvl2=1
CC41 B0:8 Y:3 2.40365e-18 $lvl1=3 $lvl2=2
CC42 B0:16 Y:16 2.05985e-18 $lvl1=1 $lvl2=1
CC43 B0:12 Y:10 1.93321e-18 $lvl1=2 $lvl2=2
CC44 B0:18 Y:20 1.68135e-18 $lvl1=1 $lvl2=1
CC45 B0:18 Y 1.3513e-18 $lvl1=1 $lvl2=1
CC46 B0:12 Y:6 1.27268e-18 $lvl1=2 $lvl2=2
CC47 B0:16 Y:6 1.15838e-18 $lvl1=1 $lvl2=2
CC48 B0:16 Y 1.01124e-18 $lvl1=1 $lvl2=1
CC49 B0:9 Y:6 9.33533e-19 $lvl1=3 $lvl2=2
CC50 B0:15 Y:5 8.47037e-19 $lvl1=2 $lvl2=2
CC51 B0:18 Y:18 8.3999e-19 $lvl1=1 $lvl2=1
CC52 B0:9 Y:10 6.91304e-19 $lvl1=3 $lvl2=2
CC53 B0:12 Y 6.79904e-19 $lvl1=2 $lvl2=1
CC54 B0:18 Y:17 6.62548e-19 $lvl1=1 $lvl2=1
CC55 B0:16 Y:10 6.16758e-19 $lvl1=1 $lvl2=2
CC56 B0:18 Y:24 5.78558e-19 $lvl1=1 $lvl2=1
CC57 B0:8 Y:6 5.60087e-19 $lvl1=3 $lvl2=2
CC58 B0:16 Y:3 5.51191e-19 $lvl1=1 $lvl2=2
CC59 B0:18 Y:15 5.43246e-19 $lvl1=1 $lvl2=1
CC60 B0:9 Y:3 4.88647e-19 $lvl1=3 $lvl2=2
CC61 B0:9 Y:5 4.3154e-19 $lvl1=3 $lvl2=2
CC62 B0:13 Y:10 4.24567e-19 $lvl1=2 $lvl2=2
CC63 B0:16 Y:18 6.54504e-18 $lvl1=1 $lvl2=1
CC64 B0:9 C0:10 4.92351e-18 $lvl1=3 $lvl2=3
CC65 B0:18 C0:18 3.98636e-18 $lvl1=1 $lvl2=2
CC66 B0:18 C0:16 3.76971e-18 $lvl1=1 $lvl2=2
CC67 B0:13 C0:19 3.55505e-18 $lvl1=2 $lvl2=1
CC68 B0:12 C0:19 3.20207e-18 $lvl1=2 $lvl2=1
CC69 Mmn2:g C0:10 3.17356e-18 $lvl1=3 $lvl2=3
CC70 B0:12 C0:10 2.60748e-18 $lvl1=2 $lvl2=3
CC71 B0:12 C0:18 2.28791e-18 $lvl1=2 $lvl2=2
CC72 B0:9 C0:8 2.26401e-18 $lvl1=3 $lvl2=3
CC73 B0:12 C0:17 1.68049e-18 $lvl1=2 $lvl2=2
CC74 B0:9 C0:18 1.39721e-18 $lvl1=3 $lvl2=2
CC75 B0:18 C0:17 1.35247e-18 $lvl1=1 $lvl2=2
CC76 B0:18 C0:10 8.16807e-19 $lvl1=1 $lvl2=3
CC77 B0:12 C0:16 8.00367e-19 $lvl1=2 $lvl2=2
CC78 B0:12 C0:8 7.45151e-19 $lvl1=2 $lvl2=3
CC79 B0:13 C0:18 7.28043e-19 $lvl1=2 $lvl2=2
CC80 B0:9 C0:17 6.62607e-19 $lvl1=3 $lvl2=2
CC81 B0:12 C0:21 6.11931e-19 $lvl1=2 $lvl2=1
CC82 B0:16 C0:19 3.92859e-17 $lvl1=1 $lvl2=1
CC83 B0:18 C0:19 3.71354e-17 $lvl1=1 $lvl2=1
CC84 B0:18 C0:21 4.20402e-17 $lvl1=1 $lvl2=1
CC85 B0:15 B1:16 4.43868e-18 $lvl1=2 $lvl2=1
CC86 B0:9 B1:9 4.35548e-18 $lvl1=3 $lvl2=3
CC87 B0:18 B1:13 3.66435e-18 $lvl1=1 $lvl2=2
CC88 B0:13 B1:16 3.60022e-18 $lvl1=2 $lvl2=1
CC89 Mmn2:g B1:9 2.69461e-18 $lvl1=3 $lvl2=3
CC90 B0:18 B1:12 2.5728e-18 $lvl1=1 $lvl2=2
CC91 B0:15 B1:12 2.54683e-18 $lvl1=2 $lvl2=2
CC92 B0:9 Mmp3:g 2.14666e-18 $lvl1=3 $lvl2=3
CC93 B0:9 B1:12 1.96358e-18 $lvl1=3 $lvl2=2
CC94 B0:15 B1:9 1.88608e-18 $lvl1=2 $lvl2=3
CC95 B0:12 B1:12 1.03863e-18 $lvl1=2 $lvl2=2
CC96 B0:15 B1:13 1.0255e-18 $lvl1=2 $lvl2=2
CC97 B0:13 B1:12 7.90708e-19 $lvl1=2 $lvl2=2
CC98 B0:9 B1:16 6.58599e-19 $lvl1=3 $lvl2=1
CC99 Mmn2:g B1:12 6.39994e-19 $lvl1=3 $lvl2=2
CC100 B0:16 B1:16 3.46448e-17 $lvl1=1 $lvl2=1
CC101 B0:18 B1:18 3.71251e-17 $lvl1=1 $lvl2=1
CC102 B0:18 B1:16 3.30287e-17 $lvl1=1 $lvl2=1
ReC26 B0:16 B0:17 0.245192 $metal1  $L=0.51 $W=0.260000 $SI_W=0.26 $TYPE=10 $DIR=1 $LLX=1.710000 $LLY=1.950000 $URX=1.970000 $URY=2.460000 $lvl=1
ReC27 B0:17 B0 0.064904 $metal1  $L=0.135 $W=0.260000 $SI_W=0.26 $TYPE=10 $DIR=1 $LLX=1.710000 $LLY=1.815000 $URX=1.970000 $URY=1.950000 $lvl=1
ReC28 B0 B0:18 0.286058 $metal1  $L=0.595 $W=0.260000 $SI_W=0.26 $TYPE=10 $DIR=1 $LLX=1.725000 $LLY=1.220000 $URX=1.985000 $URY=1.815000 $lvl=1
RfC29 B0:12 B0:13 12.423529 $li  $L=0.165 $W=0.170000 $SI_W=0.17 $TYPE=10 $DIR=0 $LLX=1.840000 $LLY=1.865000 $URX=2.005000 $URY=2.035000 $lvl=2
RfC30 B0:13 B0:14 5.647059 $li  $L=0.075 $W=1000000 $SI_W=1000000 $TYPE=1,10 $DIR=0 $LLX=1.765000 $LLY=1.865000 $URX=1.840000 $URY=2.035000 $lvl=2
RfC31 B0:14 B0:15 15.811765 $li  $L=0.21 $W=0.170000 $SI_W=0.17 $TYPE=10 $DIR=0 $LLX=1.555000 $LLY=1.865000 $URX=1.765000 $URY=2.035000 $lvl=2
RgC32 B0:8 Mmp2:g 282.773346 $poly  $L=0.88 $W=0.150000 $SI_W=0.15 $TYPE=10 $DIR=1 $LLX=1.690000 $LLY=3.015000 $URX=1.840000 $URY=3.895000 $lvl=3
RgC33 Mmp2:g B0:9 323.379089 $poly  $L=1.065 $W=0.150000 $SI_W=0.15 $TYPE=10 $DIR=1 $LLX=1.690000 $LLY=1.950000 $URX=1.840000 $URY=3.015000 $lvl=3
RgC34 B0:9 B0:10 34.134449 $poly  $L=0.1645 $W=0.270000 $SI_W=0.27 $TYPE=10 $DIR=1 $LLX=1.630000 $LLY=1.785500 $URX=1.900000 $URY=1.950000 $lvl=3
RgC35 B0:10 Mmn2:g 324.591278 $poly  $L=1.01 $W=0.150000 $SI_W=0.15 $TYPE=10 $DIR=1 $LLX=1.690000 $LLY=0.775000 $URX=1.840000 $URY=1.785000 $lvl=3
RgC36 Mmn2:g B0:11 170.306671 $poly  $L=0.53 $W=0.150000 $SI_W=0.15 $TYPE=10 $DIR=1 $LLX=1.690000 $LLY=0.245000 $URX=1.840000 $URY=0.775000 $lvl=3
RjC37 B0:13 B0:17 152.000000 $mcon  $L=0.17 $W=0.17 $A=0.0289 $VC=0 $SAVL=0 $SAVC=0 $SI_A=0.0289 $COVER_DIR=0 $LLX=0.000000 $LLY=0.000000 $URX=0.170000 $URY=0.170000 $lvl=6
RiC38 B0:9 B0:14 15.000000 $licon  $L=0.17 $W=0.17 $A=0.0289 $VC=0 $SAVL=0 $SAVC=0 $SI_A=0.0289 $COVER_DIR=0 $LLX=0.000000 $LLY=0.000000 $URX=0.170000 $URY=0.170000 $lvl=7
*
*|NET A0 1.18285e-15
*|P (A0 X 0 0.4750 1.7900) // $llx=0.4750 $lly=1.7900 $urx=0.4750 $ury=1.7900 $lvl=1
*|I (Mmp0:g Mmp0 g X 0 0.4750 3.0150) // $llx=0.4750 $lly=3.0150 $urx=0.4750 $ury=3.0150 $lvl=3
*|I (Mmn0:g Mmn0 g X 0 0.4750 0.7750) // $llx=0.4750 $lly=0.7750 $urx=0.4750 $ury=0.7750 $lvl=3
*|S (A0:8 0.4750 3.8950) // $llx=0.4750 $lly=3.8950 $urx=0.4750 $ury=3.8950 $lvl=3
*|S (A0:9 0.4750 1.4300) // $llx=0.4750 $lly=1.4300 $urx=0.4750 $ury=1.4300 $lvl=3
*|S (A0:10 0.4750 1.2650) // $llx=0.4750 $lly=1.2650 $urx=0.4750 $ury=1.2650 $lvl=3
*|S (A0:11 0.4750 0.2450) // $llx=0.4750 $lly=0.2450 $urx=0.4750 $ury=0.2450 $lvl=3
*|S (A0:12 0.7100 1.4300) // $llx=0.7100 $lly=1.4300 $urx=0.7100 $ury=1.4300 $lvl=2
*|S (A0:13 0.4750 1.4300) // $llx=0.4750 $lly=1.4300 $urx=0.4750 $ury=1.4300 $lvl=2
*|S (A0:14 0.4600 1.4300) // $llx=0.4600 $lly=1.4300 $urx=0.4600 $ury=1.4300 $lvl=2
*|S (A0:15 0.4600 2.4400) // $llx=0.4600 $lly=2.4400 $urx=0.4600 $ury=2.4400 $lvl=1
*|S (A0:16 0.4600 1.4300) // $llx=0.4600 $lly=1.4300 $urx=0.4600 $ury=1.4300 $lvl=1
*|S (A0:17 0.4600 1.2000) // $llx=0.4600 $lly=1.2000 $urx=0.4600 $ury=1.2000 $lvl=1
CA1 Mmn0:g VSS! 3.13943e-18 $lvl=3
CA2 A0:8 VSS! 2.67885e-18 $lvl=3
CA3 A0:15 VSS! 1.2121e-17 $lvl=1
CA4 A0:17 VSS! 1.21949e-17 $lvl=1
CA5 A0:14 VSS! 7.6034e-18 $lvl=2
CA6 A0:9 VSS! 1.85809e-17 $lvl=3
CA7 A0:8 net115 1.14305e-18 $lvl1=3 $lvl2=2
CA8 A0:15 net115:4 3.2984e-18 $lvl1=1 $lvl2=2
CA9 A0:15 net115:3 9.14398e-18 $lvl1=1 $lvl2=2
CA10 A0:8 net115:3 1.89494e-16 $lvl1=3 $lvl2=2
CA11 A0:17 net128:19 5.83992e-18 $lvl1=1 $lvl2=1
CA12 A0:14 net128:2 3.87219e-18 $lvl1=2 $lvl2=2
CA13 A0:14 net128:21 3.34585e-18 $lvl1=2 $lvl2=1
CA14 A0:15 net128:21 3.32259e-18 $lvl1=1 $lvl2=1
CA15 A0:17 net128:2 3.17923e-18 $lvl1=1 $lvl2=2
CA16 A0:17 net128 2.77653e-18 $lvl1=1 $lvl2=2
CA17 A0:14 net128:9 2.45232e-18 $lvl1=2 $lvl2=2
CA18 A0:9 Mmn0:d 1.68796e-18 $lvl1=3 $lvl2=4
CA19 A0:15 net128 1.38787e-18 $lvl1=1 $lvl2=2
CA20 A0:9 net128:9 9.96887e-19 $lvl1=3 $lvl2=2
CA21 A0:14 net128:19 9.34441e-19 $lvl1=2 $lvl2=1
CA22 A0:15 net128:19 8.4584e-19 $lvl1=1 $lvl2=1
CA23 A0:14 net128 1.66532e-17 $lvl1=2 $lvl2=2
CA24 A0:9 net128 7.28157e-18 $lvl1=3 $lvl2=2
CA25 Mmn0:g net128 1.29398e-16 $lvl1=3 $lvl2=2
CA26 A0:17 net128:21 4.51946e-17 $lvl1=1 $lvl2=1
CA27 A0:17 VSS!:10 1.90155e-18 $lvl1=1 $lvl2=1
CA28 A0:17 VSS!:1 1.81398e-18 $lvl1=1 $lvl2=2
CA29 A0:15 VSS!:10 1.42256e-18 $lvl1=1 $lvl2=1
CA30 A0:15 VSS!:11 1.16072e-18 $lvl1=1 $lvl2=1
CA31 Mmn0:g VSS!:1 1.29356e-16 $lvl1=3 $lvl2=2
CA32 A0:9 VSS!:1 5.94128e-18 $lvl1=3 $lvl2=2
CA33 Mmn0:g VSS!:4 7.22942e-18 $lvl1=3 $lvl2=2
CA34 A0:14 VSS!:1 1.7719e-17 $lvl1=2 $lvl2=2
CA35 A0:14 VDD! 5.17325e-18 $lvl1=2 $lvl2=1
CA36 A0:9 VDD! 4.73308e-18 $lvl1=3 $lvl2=1
CA37 A0:15 VDD!:15 3.2007e-18 $lvl1=1 $lvl2=1
CA38 A0:14 VDD!:1 2.54984e-18 $lvl1=2 $lvl2=2
CA39 A0:15 VDD!:16 1.79907e-18 $lvl1=1 $lvl2=1
CA40 A0:9 VDD!:1 1.67907e-18 $lvl1=3 $lvl2=2
CA41 A0:15 VDD! 2.37675e-17 $lvl1=1 $lvl2=1
CA42 A0:8 VDD!:1 2.60745e-16 $lvl1=3 $lvl2=2
CA43 A0:17 VDD! 1.12498e-17 $lvl1=1 $lvl2=1
CA44 A0:8 VDD!:4 9.94901e-18 $lvl1=3 $lvl2=2
CA45 A0:15 VDD!:1 2.27573e-17 $lvl1=1 $lvl2=2
CA46 A0:8 Y:3 2.07311e-18 $lvl1=3 $lvl2=2
CA47 A0:15 Y:18 7.69103e-18 $lvl1=1 $lvl2=1
CA48 A0:15 B1:16 2.57171e-18 $lvl1=1 $lvl2=1
CA49 A0:14 B1:12 2.48492e-18 $lvl1=2 $lvl2=2
CA50 A0:9 B1:9 1.20453e-18 $lvl1=3 $lvl2=3
CA51 A0:14 B1:9 1.08498e-18 $lvl1=2 $lvl2=3
CA52 A0:15 A1:15 5.72285e-18 $lvl1=1 $lvl2=2
CA53 A0:14 A1:15 5.43586e-18 $lvl1=2 $lvl2=2
CA54 A0:9 A1:9 4.31612e-18 $lvl1=3 $lvl2=3
CA55 A0:15 A1:13 4.27469e-18 $lvl1=1 $lvl2=2
CA56 A0:14 A1:9 3.00678e-18 $lvl1=2 $lvl2=3
CA57 A0:14 A1:13 2.39989e-18 $lvl1=2 $lvl2=2
CA58 A0:9 Mmn1:g 2.22111e-18 $lvl1=3 $lvl2=3
CA59 A0:9 A1:15 2.07845e-18 $lvl1=3 $lvl2=2
CA60 A0:8 A1:9 2.01878e-18 $lvl1=3 $lvl2=3
CA61 A0:14 A1:14 1.06466e-18 $lvl1=2 $lvl2=2
CA62 A0:15 A1:9 8.69031e-19 $lvl1=1 $lvl2=3
CA63 A0:14 Mmn1:g 7.35034e-19 $lvl1=2 $lvl2=3
CA64 A0:15 A1:18 3.8849e-17 $lvl1=1 $lvl2=1
CA65 A0:14 A1:18 9.12507e-18 $lvl1=2 $lvl2=1
CA66 A0:17 A1:18 4.26614e-17 $lvl1=1 $lvl2=1
CA67 A0:15 A1:16 3.82478e-17 $lvl1=1 $lvl2=1
ReA1 A0:15 A0 0.312500 $metal1  $L=0.65 $W=0.260000 $SI_W=0.26 $TYPE=10 $DIR=1 $LLX=0.330000 $LLY=1.790000 $URX=0.590000 $URY=2.440000 $lvl=1
ReA2 A0 A0:16 0.173077 $metal1  $L=0.36 $W=0.260000 $SI_W=0.26 $TYPE=10 $DIR=1 $LLX=0.330000 $LLY=1.430000 $URX=0.590000 $URY=1.790000 $lvl=1
ReA3 A0:16 A0:17 0.110577 $metal1  $L=0.23 $W=0.260000 $SI_W=0.26 $TYPE=10 $DIR=1 $LLX=0.330000 $LLY=1.200000 $URX=0.590000 $URY=1.430000 $lvl=1
RfA4 A0:12 A0:13 17.694118 $li  $L=0.235 $W=0.170000 $SI_W=0.17 $TYPE=10 $DIR=0 $LLX=0.475000 $LLY=1.345000 $URX=0.710000 $URY=1.515000 $lvl=2
RfA5 A0:13 A0:14 1.129412 $li  $L=0.015 $W=1000000 $SI_W=1000000 $TYPE=1,10 $DIR=0 $LLX=0.460000 $LLY=1.345000 $URX=0.475000 $URY=1.515000 $lvl=2
RgA6 A0:8 Mmp0:g 282.773346 $poly  $L=0.88 $W=0.150000 $SI_W=0.15 $TYPE=10 $DIR=1 $LLX=0.400000 $LLY=3.015000 $URX=0.550000 $URY=3.895000 $lvl=3
RgA7 Mmp0:g A0:9 490.472412 $poly  $L=1.585 $W=0.150000 $SI_W=0.15 $TYPE=10 $DIR=1 $LLX=0.400000 $LLY=1.430000 $URX=0.550000 $URY=3.015000 $lvl=3
RgA8 A0:9 A0:10 34.134449 $poly  $L=0.1645 $W=0.270000 $SI_W=0.27 $TYPE=10 $DIR=1 $LLX=0.340000 $LLY=1.265500 $URX=0.610000 $URY=1.430000 $lvl=3
RgA9 A0:10 Mmn0:g 157.497955 $poly  $L=0.49 $W=0.150000 $SI_W=0.15 $TYPE=10 $DIR=1 $LLX=0.400000 $LLY=0.775000 $URX=0.550000 $URY=1.265000 $lvl=3
RgA10 Mmn0:g A0:11 170.306671 $poly  $L=0.53 $W=0.150000 $SI_W=0.15 $TYPE=10 $DIR=1 $LLX=0.400000 $LLY=0.245000 $URX=0.550000 $URY=0.775000 $lvl=3
RjA11 A0:14 A0:16 152.000000 $mcon  $L=0.17 $W=0.17 $A=0.0289 $VC=0 $SAVL=0 $SAVC=0 $SI_A=0.0289 $COVER_DIR=0 $LLX=0.000000 $LLY=0.000000 $URX=0.170000 $URY=0.170000 $lvl=6
RiA12 A0:9 A0:13 15.000000 $licon  $L=0.17 $W=0.17 $A=0.0289 $VC=0 $SAVL=0 $SAVC=0 $SI_A=0.0289 $COVER_DIR=0 $LLX=0.000000 $LLY=0.000000 $URX=0.170000 $URY=0.170000 $lvl=7
*
*|NET C0 1.31147e-15
*|P (C0 X 0 2.3150 1.8150) // $llx=2.3150 $lly=1.8150 $urx=2.3150 $ury=1.8150 $lvl=1
*|I (Mmp4:g Mmp4 g X 0 2.1950 3.0150) // $llx=2.1950 $lly=3.0150 $urx=2.1950 $ury=3.0150 $lvl=3
*|I (Mmn4:g Mmn4 g X 0 2.7150 0.7750) // $llx=2.7150 $lly=0.7750 $urx=2.7150 $ury=0.7750 $lvl=3
*|S (C0:8 2.1950 3.8950) // $llx=2.1950 $lly=3.8950 $urx=2.1950 $ury=3.8950 $lvl=3
*|S (C0:9 2.1950 1.5945) // $llx=2.1950 $lly=1.5945 $urx=2.1950 $ury=1.5945 $lvl=3
*|S (C0:10 2.1950 1.4300) // $llx=2.1950 $lly=1.4300 $urx=2.1950 $ury=1.4300 $lvl=3
*|S (C0:11 2.1950 1.2650) // $llx=2.1950 $lly=1.2650 $urx=2.1950 $ury=1.2650 $lvl=3
*|S (C0:12 2.2250 1.2300) // $llx=2.2250 $lly=1.2300 $urx=2.2250 $ury=1.2300 $lvl=3
*|S (C0:13 2.7150 1.3225) // $llx=2.7150 $lly=1.3225 $urx=2.7150 $ury=1.3225 $lvl=3
*|S (C0:14 2.7150 0.2450) // $llx=2.7150 $lly=0.2450 $urx=2.7150 $ury=0.2450 $lvl=3
*|S (C0:15 2.4650 1.4300) // $llx=2.4650 $lly=1.4300 $urx=2.4650 $ury=1.4300 $lvl=2
*|S (C0:16 2.3000 1.4300) // $llx=2.3000 $lly=1.4300 $urx=2.3000 $ury=1.4300 $lvl=2
*|S (C0:17 2.1950 1.4300) // $llx=2.1950 $lly=1.4300 $urx=2.1950 $ury=1.4300 $lvl=2
*|S (C0:18 2.0200 1.4300) // $llx=2.0200 $lly=1.4300 $urx=2.0200 $ury=1.4300 $lvl=2
*|S (C0:19 2.3000 2.4600) // $llx=2.3000 $lly=2.4600 $urx=2.3000 $ury=2.4600 $lvl=1
*|S (C0:20 2.3000 1.4300) // $llx=2.3000 $lly=1.4300 $urx=2.3000 $ury=1.4300 $lvl=1
*|S (C0:21 2.3000 1.2200) // $llx=2.3000 $lly=1.2200 $urx=2.3000 $ury=1.2200 $lvl=1
CE1 C0:8 VSS! 2.95287e-18 $lvl=3
CE2 C0:14 VSS! 3.36244e-18 $lvl=3
CE3 C0:19 VSS! 9.9516e-18 $lvl=1
CE4 C0:21 VSS! 9.24459e-18 $lvl=1
CE5 C0:17 VSS! 6.54535e-18 $lvl=2
CE6 C0:18 VSS! 4.36427e-18 $lvl=2
CE7 C0:16 VSS! 4.43802e-18 $lvl=2
CE8 C0:10 VSS! 1.90436e-17 $lvl=3
CE9 C0:16 net132:6 3.02506e-18 $lvl1=2 $lvl2=2
CE10 C0:21 net132:6 2.7315e-18 $lvl1=1 $lvl2=2
CE11 C0:10 Mmn4:s 1.82222e-18 $lvl1=3 $lvl2=4
CE12 C0:18 net132:3 1.3251e-18 $lvl1=2 $lvl2=2
CE13 C0:10 net132:3 1.20905e-18 $lvl1=3 $lvl2=2
CE14 C0:21 net132:14 7.2482e-19 $lvl1=1 $lvl2=1
CE15 C0:21 net132:12 5.91831e-18 $lvl1=1 $lvl2=1
CE16 C0:17 net132:6 1.26294e-17 $lvl1=2 $lvl2=2
CE17 C0:14 net132:6 1.31661e-16 $lvl1=3 $lvl2=2
CE18 C0:10 net132:6 8.30652e-18 $lvl1=3 $lvl2=2
CE19 C0:17 net128:11 4.33838e-18 $lvl1=2 $lvl2=2
CE20 C0:10 Mmn2:s 2.44879e-18 $lvl1=3 $lvl2=4
CE21 C0:21 net128:12 1.9338e-18 $lvl1=1 $lvl2=2
CE22 C0:16 net128:11 1.37602e-18 $lvl1=2 $lvl2=2
CE23 C0:16 net128:12 1.23276e-18 $lvl1=2 $lvl2=2
CE24 C0:21 net128:11 1.1721e-18 $lvl1=1 $lvl2=2
CE25 C0:18 net128:12 9.77761e-19 $lvl1=2 $lvl2=2
CE26 C0:18 net128:11 6.96664e-18 $lvl1=2 $lvl2=2
CE27 C0:21 net128:17 1.77268e-17 $lvl1=1 $lvl2=1
CE28 C0:10 net128:11 1.13531e-17 $lvl1=3 $lvl2=2
CE29 C0:14 VSS!:4 7.96728e-18 $lvl1=3 $lvl2=2
CE30 C0:21 VDD! 4.66145e-18 $lvl1=1 $lvl2=1
CE31 C0:10 VDD! 1.97321e-18 $lvl1=3 $lvl2=1
CE32 C0:17 VDD! 1.4059e-18 $lvl1=2 $lvl2=1
CE33 C0:8 VDD!:4 8.53461e-18 $lvl1=3 $lvl2=2
CE34 C0:8 VDD!:12 2.54277e-16 $lvl1=3 $lvl2=2
CE35 C0:19 VDD! 7.35951e-18 $lvl1=1 $lvl2=1
CE36 C0:19 VDD!:12 6.90922e-18 $lvl1=1 $lvl2=2
CE37 C0:16 Y:20 3.85613e-18 $lvl1=2 $lvl2=1
CE38 C0:19 Y:17 3.83755e-18 $lvl1=1 $lvl2=1
CE39 C0:17 Y:20 3.79003e-18 $lvl1=2 $lvl2=1
CE40 C0:19 Y:16 3.7392e-18 $lvl1=1 $lvl2=1
CE41 C0:17 Y:11 2.89846e-18 $lvl1=2 $lvl2=2
CE42 C0:17 Y 2.04272e-18 $lvl1=2 $lvl2=1
CE43 C0:21 Y:24 2.02207e-18 $lvl1=1 $lvl2=1
CE44 C0:19 Y:18 1.87532e-18 $lvl1=1 $lvl2=1
CE45 C0:10 Y:11 1.24536e-18 $lvl1=3 $lvl2=2
CE46 C0:16 Y 1.1071e-18 $lvl1=2 $lvl2=1
CE47 C0:8 Y:10 9.88257e-19 $lvl1=3 $lvl2=2
CE48 C0:19 Y:9 9.47978e-19 $lvl1=1 $lvl2=2
CE49 C0:10 Y:6 9.35035e-19 $lvl1=3 $lvl2=2
CE50 C0:10 Y 9.1083e-19 $lvl1=3 $lvl2=1
CE51 C0:17 Y:6 7.70838e-19 $lvl1=2 $lvl2=2
CE52 C0:17 Y:10 7.01125e-19 $lvl1=2 $lvl2=2
CE53 C0:10 Y:20 6.43635e-19 $lvl1=3 $lvl2=1
CE54 C0:10 Y:10 6.43436e-19 $lvl1=3 $lvl2=2
CE55 C0:16 Y:11 5.4462e-19 $lvl1=2 $lvl2=2
CE56 C0:10 Mmp4:d 4.6004e-19 $lvl1=3 $lvl2=4
CE57 C0:21 Y:11 4.3802e-19 $lvl1=1 $lvl2=2
CE58 C0:14 Y:20 4.33285e-19 $lvl1=3 $lvl2=1
CE59 C0:19 Y:24 4.2731e-19 $lvl1=1 $lvl2=1
CE60 C0:19 Y:11 4.19774e-19 $lvl1=1 $lvl2=2
CE61 C0:21 Y:14 3.97259e-19 $lvl1=1 $lvl2=2
CE62 C0:17 Y:14 3.48516e-19 $lvl1=2 $lvl2=2
CE63 C0:19 Y:15 2.26609e-17 $lvl1=1 $lvl2=1
CE64 C0:8 Y:6 2.52191e-16 $lvl1=3 $lvl2=2
CE65 C0:19 Y:10 6.89316e-18 $lvl1=1 $lvl2=2
CE66 C0:19 Y:6 6.57305e-18 $lvl1=1 $lvl2=2
CE67 C0:14 Y:11 1.31406e-16 $lvl1=3 $lvl2=2
CE68 C0:19 Y 6.36593e-17 $lvl1=1 $lvl2=1
CE69 C0:21 Y:20 4.42039e-17 $lvl1=1 $lvl2=1
CE70 C0:21 Y 6.97984e-18 $lvl1=1 $lvl2=1
CE71 C0:19 Y:20 7.06782e-18 $lvl1=1 $lvl2=1
ReE52 C0:19 C0 0.310096 $metal1  $L=0.645 $W=0.260000 $SI_W=0.26 $TYPE=10 $DIR=1 $LLX=2.170000 $LLY=1.815000 $URX=2.430000 $URY=2.460000 $lvl=1
ReE53 C0 C0:20 0.185096 $metal1  $L=0.385 $W=0.260000 $SI_W=0.26 $TYPE=10 $DIR=1 $LLX=2.170000 $LLY=1.430000 $URX=2.430000 $URY=1.815000 $lvl=1
ReE54 C0:20 C0:21 0.100962 $metal1  $L=0.21 $W=0.260000 $SI_W=0.26 $TYPE=10 $DIR=1 $LLX=2.170000 $LLY=1.220000 $URX=2.430000 $URY=1.430000 $lvl=1
RfE55 C0:15 C0:16 12.423529 $li  $L=0.165 $W=0.170000 $SI_W=0.17 $TYPE=10 $DIR=0 $LLX=2.300000 $LLY=1.345000 $URX=2.465000 $URY=1.515000 $lvl=2
RfE56 C0:16 C0:17 7.905882 $li  $L=0.105 $W=0.170000 $SI_W=0.17 $TYPE=10 $DIR=0 $LLX=2.195000 $LLY=1.345000 $URX=2.300000 $URY=1.515000 $lvl=2
RfE57 C0:17 C0:18 13.176471 $li  $L=0.175 $W=0.170000 $SI_W=0.17 $TYPE=10 $DIR=0 $LLX=2.020000 $LLY=1.345000 $URX=2.195000 $URY=1.515000 $lvl=2
RgE58 C0:8 Mmp4:g 282.773346 $poly  $L=0.88 $W=0.150000 $SI_W=0.15 $TYPE=10 $DIR=1 $LLX=2.120000 $LLY=3.015000 $URX=2.270000 $URY=3.895000 $lvl=3
RgE59 Mmp4:g C0:9 456.337952 $poly  $L=1.42 $W=0.150000 $SI_W=0.15 $TYPE=10 $DIR=1 $LLX=2.120000 $LLY=1.594500 $URX=2.270000 $URY=3.014500 $lvl=3
RgE60 C0:9 C0:10 29.935762 $poly  $L=0.1645 $W=0.270000 $SI_W=0.27 $TYPE=10 $DIR=1 $LLX=2.060000 $LLY=1.430000 $URX=2.330000 $URY=1.594500 $lvl=3
RgE61 C0:10 C0:11 29.410925 $poly  $L=0.1645 $W=0.270000 $SI_W=0.27 $TYPE=10 $DIR=1 $LLX=2.060000 $LLY=1.265500 $URX=2.330000 $URY=1.430000 $lvl=3
RgE62 C0:11 C0:12 8.077963 $poly  $L=0.035 $W=0.210000 $SI_W=0.21 $TYPE=10 $DIR=1 $LLX=2.090000 $LLY=1.230000 $URX=2.300000 $URY=1.265000 $lvl=3
RgE63 C0:10 C0:13 148.781921 $poly  $L=0.52025 $W=0.150000 $SI_W=0.15 $TYPE=10 $DIR=0 $LLX=2.195000 $LLY=1.230000 $URX=2.715000 $URY=1.380000 $lvl=3
RgE64 C0:13 Mmn4:g 176.010330 $poly  $L=0.54775 $W=0.150000 $SI_W=0.15 $TYPE=10 $DIR=1 $LLX=2.640000 $LLY=0.774500 $URX=2.790000 $URY=1.322500 $lvl=3
RgE65 Mmn4:g C0:14 170.306671 $poly  $L=0.53 $W=0.150000 $SI_W=0.15 $TYPE=10 $DIR=1 $LLX=2.640000 $LLY=0.245000 $URX=2.790000 $URY=0.775000 $lvl=3
RjE66 C0:16 C0:20 152.000000 $mcon  $L=0.17 $W=0.17 $A=0.0289 $VC=0 $SAVL=0 $SAVC=0 $SI_A=0.0289 $COVER_DIR=0 $LLX=0.000000 $LLY=0.000000 $URX=0.170000 $URY=0.170000 $lvl=6
RiE67 C0:10 C0:17 15.000000 $licon  $L=0.17 $W=0.17 $A=0.0289 $VC=0 $SAVL=0 $SAVC=0 $SI_A=0.0289 $COVER_DIR=0 $LLX=0.000000 $LLY=0.000000 $URX=0.170000 $URY=0.170000 $lvl=7
*
*|NET Y 2.29796e-15
*|P (Y X 0 2.7750 2.0100) // $llx=2.7750 $lly=2.0100 $urx=2.7750 $ury=2.0100 $lvl=1
*|I (Mmp3:d Mmp3 d X 0 1.2595 3.0150) // $llx=1.2595 $lly=3.0150 $urx=1.2595 $ury=3.0150 $lvl=4
*|I (Mmp4:d Mmp4 d X 0 2.2705 3.0150) // $llx=2.2705 $lly=3.0150 $urx=2.2705 $ury=3.0150 $lvl=4
*|I (Mmp1:d Mmp1 d X 0 0.9805 3.0150) // $llx=0.9805 $lly=3.0150 $urx=0.9805 $ury=3.0150 $lvl=4
*|I (Mmn4:d Mmn4 d X 0 2.7905 0.7750) // $llx=2.7905 $lly=0.7750 $urx=2.7905 $ury=0.7750 $lvl=4
*|S (Y:1 1.1200 3.7450) // $llx=1.1200 $lly=3.7450 $urx=1.1200 $ury=3.7450 $lvl=2
*|S (Y:3 1.1200 3.0150) // $llx=1.1200 $lly=3.0150 $urx=1.1200 $ury=3.0150 $lvl=2
*|S (Y:4 1.1200 2.9450) // $llx=1.1200 $lly=2.9450 $urx=1.1200 $ury=2.9450 $lvl=2
*|S (Y:5 1.1200 2.2850) // $llx=1.1200 $lly=2.2850 $urx=1.1200 $ury=2.2850 $lvl=2
*|S (Y:6 2.4100 3.7450) // $llx=2.4100 $lly=3.7450 $urx=2.4100 $ury=3.7450 $lvl=2
*|S (Y:8 2.4100 3.0150) // $llx=2.4100 $lly=3.0150 $urx=2.4100 $ury=3.0150 $lvl=2
*|S (Y:9 2.4100 2.9450) // $llx=2.4100 $lly=2.9450 $urx=2.4100 $ury=2.9450 $lvl=2
*|S (Y:10 2.4100 2.2850) // $llx=2.4100 $lly=2.2850 $urx=2.4100 $ury=2.2850 $lvl=2
*|S (Y:11 2.9300 1.1550) // $llx=2.9300 $lly=1.1550 $urx=2.9300 $ury=1.1550 $lvl=2
*|S (Y:13 2.9300 0.7750) // $llx=2.9300 $lly=0.7750 $urx=2.9300 $ury=0.7750 $lvl=2
*|S (Y:14 2.9300 0.7400) // $llx=2.9300 $lly=0.7400 $urx=2.9300 $ury=0.7400 $lvl=2
*|S (Y:15 2.5775 2.8300) // $llx=2.5775 $lly=2.8300 $urx=2.5775 $ury=2.8300 $lvl=1
*|S (Y:16 2.4100 2.9450) // $llx=2.4100 $lly=2.9450 $urx=2.4100 $ury=2.9450 $lvl=1
*|S (Y:17 2.5775 3.1900) // $llx=2.5775 $lly=3.1900 $urx=2.5775 $ury=3.1900 $lvl=1
*|S (Y:18 1.1200 3.1900) // $llx=1.1200 $lly=3.1900 $urx=1.1200 $ury=3.1900 $lvl=1
*|S (Y:19 1.1200 2.9450) // $llx=1.1200 $lly=2.9450 $urx=1.1200 $ury=2.9450 $lvl=1
*|S (Y:20 2.7600 1.2450) // $llx=2.7600 $lly=1.2450 $urx=2.7600 $ury=1.2450 $lvl=1
*|S (Y:21 2.9675 1.2450) // $llx=2.9675 $lly=1.2450 $urx=2.9675 $ury=1.2450 $lvl=1
*|S (Y:22 2.9300 1.1295) // $llx=2.9300 $lly=1.1295 $urx=2.9300 $ury=1.1295 $lvl=1
*|S (Y:23 2.9300 0.7400) // $llx=2.9300 $lly=0.7400 $urx=2.9300 $ury=0.7400 $lvl=1
*|S (Y:24 2.9300 0.4150) // $llx=2.9300 $lly=0.4150 $urx=2.9300 $ury=0.4150 $lvl=1
CF1 Mmn4:d VSS! 2.09663e-18 $lvl=4
CF2 Mmp4:d VSS! 1.69469e-18 $lvl=4
CF3 Mmp3:d VSS! 2.20388e-18 $lvl=4
CF4 Y:16 VSS! 4.94365e-18 $lvl=1
CF5 Y:15 VSS! 6.62664e-18 $lvl=1
CF6 Y:17 VSS! 6.03108e-18 $lvl=1
CF7 Y:24 VSS! 6.08851e-18 $lvl=1
CF8 Y:20 VSS! 8.36825e-18 $lvl=1
CF9 Y:18 VSS! 7.5685e-18 $lvl=1
CF10 Y:11 VSS! 2.31087e-17 $lvl=2
CF11 Y:6 VSS! 5.50082e-18 $lvl=2
CF12 Y:10 VSS! 3.21076e-18 $lvl=2
CF13 Y:3 VSS! 6.4943e-18 $lvl=2
CF14 Y:5 VSS! 3.37209e-18 $lvl=2
CF15 Y:4 VSS! 1.99039e-18 $lvl=2
CF16 Y:9 VSS! 1.29358e-18 $lvl=2
CF17 Y:14 VSS! 1.48979e-18 $lvl=2
CF18 Y VSS! 8.62268e-18 $lvl=1
CF19 Y:5 net123:4 2.30946e-18 $lvl1=2 $lvl2=2
CF20 Y:4 net123:3 1.8809e-18 $lvl1=2 $lvl2=2
CF21 Y:3 Mmp3:s 1.3166e-18 $lvl1=2 $lvl2=4
CF22 Y:3 net123:4 1.14513e-18 $lvl1=2 $lvl2=2
CF23 Y:17 net123 9.39316e-19 $lvl1=1 $lvl2=2
CF24 Y:5 net123:3 5.62816e-18 $lvl1=2 $lvl2=2
CF25 Y:18 net123:3 1.6536e-17 $lvl1=1 $lvl2=2
CF26 Y:17 net123:3 4.08286e-18 $lvl1=1 $lvl2=2
CF27 Y:3 net123 8.63159e-18 $lvl1=2 $lvl2=2
CF28 Y:3 net123:3 6.64733e-17 $lvl1=2 $lvl2=2
CF29 Y:18 net123 3.77834e-18 $lvl1=1 $lvl2=2
CF30 Y:5 net115:4 2.16504e-18 $lvl1=2 $lvl2=2
CF31 Y:18 net115 2.12381e-18 $lvl1=1 $lvl2=2
CF32 Y:3 Mmp0:d 1.66827e-18 $lvl1=2 $lvl2=4
CF33 Y:4 net115:3 1.62095e-18 $lvl1=2 $lvl2=2
CF34 Y:3 net115 8.95646e-18 $lvl1=2 $lvl2=2
CF35 Y:3 net115:3 6.83738e-17 $lvl1=2 $lvl2=2
CF36 Y:5 net115:3 6.1175e-18 $lvl1=2 $lvl2=2
CF37 Y:18 net115:3 8.96512e-18 $lvl1=1 $lvl2=2
CF38 Y:11 net132:9 5.11582e-18 $lvl1=2 $lvl2=2
CF39 Y:11 net132:10 5.10794e-18 $lvl1=2 $lvl2=2
CF40 Y:14 net132:6 3.80134e-18 $lvl1=2 $lvl2=2
CF41 Y:14 net132:12 1.74955e-18 $lvl1=2 $lvl2=1
CF42 Y:24 net132:9 1.26164e-18 $lvl1=1 $lvl2=2
CF43 Y:24 net132:6 1.24834e-18 $lvl1=1 $lvl2=2
CF44 Y:11 net132:12 8.19614e-19 $lvl1=2 $lvl2=1
CF45 Y:11 Mmn4:s 8.14714e-19 $lvl1=2 $lvl2=4
CF46 Y:14 net132:10 6.61817e-19 $lvl1=2 $lvl2=2
CF47 Y net132:6 6.24801e-19 $lvl1=1 $lvl2=2
CF48 Y:20 net132:12 9.66434e-18 $lvl1=1 $lvl2=1
CF49 Y:24 net132:12 3.87451e-17 $lvl1=1 $lvl2=1
CF50 Y:14 net132:9 6.24447e-18 $lvl1=2 $lvl2=2
CF51 Y:11 net132:6 4.2491e-17 $lvl1=2 $lvl2=2
CF52 Y:20 net132:6 6.16546e-18 $lvl1=1 $lvl2=2
CF53 Y:20 net128:17 2.69946e-18 $lvl1=1 $lvl2=1
CF54 Y:11 VSS!:7 3.84327e-18 $lvl1=2 $lvl2=4
CF55 Y:11 VSS!:9 3.40837e-18 $lvl1=2 $lvl2=1
CF56 Y:20 VSS!:10 2.48613e-18 $lvl1=1 $lvl2=1
CF57 Y:20 VSS!:9 2.30341e-18 $lvl1=1 $lvl2=1
CF58 Y:11 VSS!:6 2.22109e-18 $lvl1=2 $lvl2=2
CF59 Y:11 VSS!:10 1.775e-18 $lvl1=2 $lvl2=1
CF60 Y:14 VSS!:4 1.68927e-18 $lvl1=2 $lvl2=2
CF61 Y:24 VSS!:4 1.28795e-18 $lvl1=1 $lvl2=2
CF62 Y:14 VSS!:9 1.23531e-18 $lvl1=2 $lvl2=1
CF63 Y:20 VSS!:4 1.06469e-18 $lvl1=1 $lvl2=2
CF64 Y:14 VSS!:10 9.11189e-19 $lvl1=2 $lvl2=1
CF65 Y:24 VSS!:6 8.65684e-19 $lvl1=1 $lvl2=2
CF66 Y VSS!:9 8.38887e-19 $lvl1=1 $lvl2=1
CF67 Y VSS!:10 8.28883e-19 $lvl1=1 $lvl2=1
CF68 Y:14 VSS!:6 8.00761e-19 $lvl1=2 $lvl2=2
CF69 Y:11 VSS!:4 2.64053e-17 $lvl1=2 $lvl2=2
CF70 Y:24 VSS!:9 2.35539e-17 $lvl1=1 $lvl2=1
CF71 Y:24 VSS!:10 2.08255e-17 $lvl1=1 $lvl2=1
CF72 Y:6 VDD!:15 9.59859e-18 $lvl1=2 $lvl2=1
CF73 Y:18 VDD!:12 8.12512e-18 $lvl1=1 $lvl2=2
CF74 Y:17 VDD!:14 7.73443e-18 $lvl1=1 $lvl2=1
CF75 Y:10 VDD!:12 6.32917e-18 $lvl1=2 $lvl2=2
CF76 Y:18 VDD!:1 6.2047e-18 $lvl1=1 $lvl2=2
CF77 Y:3 VDD!:1 4.23728e-18 $lvl1=2 $lvl2=2
CF78 Y:3 VDD!:12 4.15011e-18 $lvl1=2 $lvl2=2
CF79 Y:17 VDD!:13 3.7936e-18 $lvl1=1 $lvl2=2
CF80 Y:18 VDD!:4 3.57914e-18 $lvl1=1 $lvl2=2
CF81 Y:18 VDD!:16 3.33045e-18 $lvl1=1 $lvl2=1
CF82 Y:6 VDD!:7 3.19502e-18 $lvl1=2 $lvl2=4
CF83 Y:3 VDD!:6 2.95666e-18 $lvl1=2 $lvl2=2
CF84 Y:6 VDD!:6 2.81618e-18 $lvl1=2 $lvl2=2
CF85 Y:10 VDD! 2.51901e-18 $lvl1=2 $lvl2=1
CF86 Y:17 VDD!:4 2.47995e-18 $lvl1=1 $lvl2=2
CF87 Y:15 VDD!:15 2.43621e-18 $lvl1=1 $lvl2=1
CF88 Y:16 VDD!:15 2.4067e-18 $lvl1=1 $lvl2=1
CF89 Y:6 VDD!:14 2.31082e-18 $lvl1=2 $lvl2=1
CF90 Y:15 VDD!:12 2.28613e-18 $lvl1=1 $lvl2=2
CF91 Y:9 VDD!:12 2.13228e-18 $lvl1=2 $lvl2=2
CF92 Y:14 VDD! 2.09416e-18 $lvl1=2 $lvl2=1
CF93 Mmp3:d VDD!:4 1.72849e-18 $lvl1=4 $lvl2=2
CF94 Mmp4:d VDD!:4 1.59636e-18 $lvl1=4 $lvl2=2
CF95 Y:18 VDD!:6 1.53558e-18 $lvl1=1 $lvl2=2
CF96 Y:17 VDD!:6 1.44869e-18 $lvl1=1 $lvl2=2
CF97 Y:16 VDD!:14 1.38177e-18 $lvl1=1 $lvl2=1
CF98 Y:15 VDD!:14 1.35357e-18 $lvl1=1 $lvl2=1
CF99 Y:16 VDD!:12 1.32842e-18 $lvl1=1 $lvl2=2
CF100 Y VDD!:15 1.31681e-18 $lvl1=1 $lvl2=1
CF101 Y VDD!:14 1.16591e-18 $lvl1=1 $lvl2=1
CF102 Mmp4:d VDD!:13 1.12843e-18 $lvl1=4 $lvl2=2
CF103 Y:3 VDD!:7 1.10403e-18 $lvl1=2 $lvl2=4
CF104 Y:20 VDD!:15 1.05464e-18 $lvl1=1 $lvl2=1
CF105 Y VDD!:12 7.74761e-19 $lvl1=1 $lvl2=2
CF106 Y:20 VDD!:14 7.50407e-19 $lvl1=1 $lvl2=1
CF107 Y:15 VDD!:13 7.39684e-19 $lvl1=1 $lvl2=2
CF108 Y:17 VDD!:7 6.67837e-19 $lvl1=1 $lvl2=4
CF109 Y:24 VDD!:15 5.22892e-19 $lvl1=1 $lvl2=1
CF110 Y:3 VDD! 1.34266e-17 $lvl1=2 $lvl2=1
CF111 Y:15 VDD! 1.48307e-17 $lvl1=1 $lvl2=1
CF112 Y:17 VDD!:15 3.44094e-17 $lvl1=1 $lvl2=1
CF113 Y:6 VDD!:4 2.10627e-17 $lvl1=2 $lvl2=2
CF114 Y:17 VDD! 2.43951e-17 $lvl1=1 $lvl2=1
CF115 Y:24 VDD! 1.76579e-17 $lvl1=1 $lvl2=1
CF116 Y:18 VDD!:15 3.38436e-17 $lvl1=1 $lvl2=1
CF117 Y:20 VDD! 2.11318e-17 $lvl1=1 $lvl2=1
CF118 Y:6 VDD!:12 8.8626e-17 $lvl1=2 $lvl2=2
CF119 Y:18 VDD! 1.39369e-17 $lvl1=1 $lvl2=1
CF120 Y:3 VDD!:15 1.06429e-17 $lvl1=2 $lvl2=1
CF121 Y VDD! 2.40134e-17 $lvl1=1 $lvl2=1
CF122 Y:6 VDD!:13 1.31045e-17 $lvl1=2 $lvl2=2