*
*|DSPF 1.5
*
*|DATE "Wed Jan  8 19:55:10 2025"
*|VENDOR "Cadence Design Systems"
*|PROGRAM "Cadence Quantus Extraction"
*|VERSION "22.1.0-p089 Linux 64 bit - (Thu Jan 19 11:47:08 PST 2023)"
*|DESIGN OAI22X2_HS
*|DIVIDER /
*|DELIMITER :
*|DeviceFingerDelim "@"
*|BUSBIT []
*|GLOBAL_TEMPERATURE 25
*|OPERATING_TEMPERATURE 25

** *VIA_COVERAGE_CODES
** *index FF FS FP FU SF SS SP SU PF PS PP PU UF US UP UU X_by_Y
** * "FF" stands for Full landing and Full coverage
** *0 0 0 0 0 0 0 0 0 0 0 0 0 0 0 0 0
** *1 0 0 0 0 0 0 0 0 0 0 0 0 0 0 0 1 1x1
** *2 0 0 0 0 0 0 0 0 0 0 0 0 0 0 1 0 1x1
** *3 0 0 0 0 0 0 0 0 0 0 0 0 0 1 0 0 1x1
** *4 0 0 0 0 0 0 0 0 0 0 0 0 1 0 0 0 1x1
** *5 0 0 0 0 0 0 0 0 0 0 0 1 0 0 0 0 1x1
** *6 0 0 0 0 0 0 0 0 0 0 1 0 0 0 0 0 1x1
** *7 0 0 0 0 0 0 0 0 0 1 0 0 0 0 0 0 1x1
** *8 0 0 0 0 0 0 0 0 1 0 0 0 0 0 0 0 1x1
** *9 0 0 0 0 0 0 0 1 0 0 0 0 0 0 0 0 1x1
** *10 0 0 0 0 0 0 1 0 0 0 0 0 0 0 0 0 1x1
** *11 0 0 0 0 0 1 0 0 0 0 0 0 0 0 0 0 1x1
** *12 0 0 0 0 1 0 0 0 0 0 0 0 0 0 0 0 1x1
** *13 0 0 0 1 0 0 0 0 0 0 0 0 0 0 0 0 1x1
** *14 0 0 1 0 0 0 0 0 0 0 0 0 0 0 0 0 1x1
** *15 0 1 0 0 0 0 0 0 0 0 0 0 0 0 0 0 1x1
** *16 1 0 0 0 0 0 0 0 0 0 0 0 0 0 0 0 1x1

** *RESISTOR_TYPES
** *1 SHORTING_ELEMENT
** *2 PRES_NG
** *3 PRES_PG
** *4 PRES_NF
** *5 PRES_PF
** *6 TCN_NDIFF
** *7 TCN_PDIFF
** *8 TCN_NFIELD
** *9 TCN_PFIELD
** *10 QUALITY_EXTRACTED
** *11 GCNLAND
** *12 TCNLAND
** *13 DUMMY
** *14 RSD
** *15 BRIDGE

** *RESISTOR_CURRENT_DIRECTION
** *0 HORIZONTAL
** *1 VERTICAL
** *2 45 DEGREE

** QRC_TECH_DIR /vols/wfo_devel/projects/reference_SKY130/tech/sky130_release_0.0.4/quantus/extraction/typical 
** HIERARCHICAL_SPLIT_PINS_DELIMITER '%'
** caps2d version: 10
*
.SUBCKT  OAI22X2_HS A0 A1 B0 B1 Y
*
*Net Section
*
*|GROUND_NET VSS!
*
*LAYER_MAP
*0 none
*1 metal1
*2 li
*3 poly
*4 diff
*5 licon_diff
*6 mcon
*7 licon
*8 FOX

*|NET A0 1.95975e-15
*|P (A0 X 0 0.4750 2.0400) // $llx=0.4750 $lly=2.0400 $urx=0.4750 $ury=2.0400 $lvl=1
*|I (Mmp0:g Mmp0 g X 0 0.4750 3.0150) // $llx=0.4750 $lly=3.0150 $urx=0.4750 $ury=3.0150 $lvl=3
*|I (Mmp0@1:g Mmp0@1 g X 0 0.9050 3.0150) // $llx=0.9050 $lly=3.0150 $urx=0.9050 $ury=3.0150 $lvl=3
*|I (Mmn0:g Mmn0 g X 0 0.4750 0.7750) // $llx=0.4750 $lly=0.7750 $urx=0.4750 $ury=0.7750 $lvl=3
*|I (Mmn0@1:g Mmn0@1 g X 0 0.9050 0.7750) // $llx=0.9050 $lly=0.7750 $urx=0.9050 $ury=0.7750 $lvl=3
*|S (A0:15 0.9050 3.8950) // $llx=0.9050 $lly=3.8950 $urx=0.9050 $ury=3.8950 $lvl=3
*|S (A0:16 0.9050 1.6950) // $llx=0.9050 $lly=1.6950 $urx=0.9050 $ury=1.6950 $lvl=3
*|S (A0:17 0.6900 1.6950) // $llx=0.6900 $lly=1.6950 $urx=0.6900 $ury=1.6950 $lvl=3
*|S (A0:18 0.4750 1.6950) // $llx=0.4750 $lly=1.6950 $urx=0.4750 $ury=1.6950 $lvl=3
*|S (A0:19 0.4650 1.5300) // $llx=0.4650 $lly=1.5300 $urx=0.4650 $ury=1.5300 $lvl=3
*|S (A0:20 0.9150 1.5300) // $llx=0.9150 $lly=1.5300 $urx=0.9150 $ury=1.5300 $lvl=3
*|S (A0:21 0.9050 0.2450) // $llx=0.9050 $lly=0.2450 $urx=0.9050 $ury=0.2450 $lvl=3
*|S (A0:22 0.4650 1.8595) // $llx=0.4650 $lly=1.8595 $urx=0.4650 $ury=1.8595 $lvl=3
*|S (A0:23 0.4750 3.8950) // $llx=0.4750 $lly=3.8950 $urx=0.4750 $ury=3.8950 $lvl=3
*|S (A0:24 0.4750 0.2450) // $llx=0.4750 $lly=0.2450 $urx=0.4750 $ury=0.2450 $lvl=3
*|S (A0:25 0.6900 1.6950) // $llx=0.6900 $lly=1.6950 $urx=0.6900 $ury=1.6950 $lvl=2
*|S (A0:26 0.4600 1.6950) // $llx=0.4600 $lly=1.6950 $urx=0.4600 $ury=1.6950 $lvl=2
*|S (A0:27 0.4600 2.6850) // $llx=0.4600 $lly=2.6850 $urx=0.4600 $ury=2.6850 $lvl=1
*|S (A0:28 0.4600 1.6950) // $llx=0.4600 $lly=1.6950 $urx=0.4600 $ury=1.6950 $lvl=1
*|S (A0:29 0.4600 1.4450) // $llx=0.4600 $lly=1.4450 $urx=0.4600 $ury=1.4450 $lvl=1
CA1 Mmn0@1:g VSS! 2.94548e-18 $lvl=3
CA2 Mmn0:g VSS! 2.61281e-18 $lvl=3
CA3 A0:15 VSS! 3.62528e-18 $lvl=3
CA4 A0:23 VSS! 3.22861e-18 $lvl=3
CA5 A0:27 VSS! 1.61938e-17 $lvl=1
CA6 A0:29 VSS! 1.60232e-17 $lvl=1
CA7 A0:25 VSS! 7.406e-18 $lvl=2
CA8 A0:26 VSS! 6.66449e-18 $lvl=2
CA9 A0:17 VSS! 3.21016e-17 $lvl=3
CA10 A0:29 net102:25 6.99911e-18 $lvl1=1 $lvl2=1
CA11 A0:17 net102 5.09011e-18 $lvl1=3 $lvl2=2
CA12 A0:29 net102 4.95157e-18 $lvl1=1 $lvl2=2
CA13 A0:17 net102:5 3.79286e-18 $lvl1=3 $lvl2=2
CA14 A0:25 net102 3.66464e-18 $lvl1=2 $lvl2=2
CA15 A0:25 net102:5 3.07509e-18 $lvl1=2 $lvl2=2
CA16 A0:27 net102:27 2.90965e-18 $lvl1=1 $lvl2=1
CA17 A0:26 net102 2.21558e-18 $lvl1=2 $lvl2=2
CA18 A0:29 net102:4 2.17866e-18 $lvl1=1 $lvl2=2
CA19 A0:25 net102:27 1.27585e-18 $lvl1=2 $lvl2=1
CA20 A0:27 net102:25 1.21464e-18 $lvl1=1 $lvl2=1
CA21 A0:25 net102:25 1.20128e-18 $lvl1=2 $lvl2=1
CA22 A0:17 Mmn0:d 1.18898e-18 $lvl1=3 $lvl2=4
CA23 A0:29 net102:5 1.12825e-18 $lvl1=1 $lvl2=2
CA24 A0:27 net102 1.05514e-18 $lvl1=1 $lvl2=2
CA25 A0:26 net102:27 8.58536e-19 $lvl1=2 $lvl2=1
CA26 Mmn0@1:g net102 7.25439e-19 $lvl1=3 $lvl2=2
CA27 A0:29 net102:27 1.46416e-17 $lvl1=1 $lvl2=1
CA28 Mmn0@1:g net102:5 1.29324e-16 $lvl1=3 $lvl2=2
CA29 Mmn0:g net102 1.32109e-16 $lvl1=3 $lvl2=2
CA30 A0:27 net93:13 9.39068e-18 $lvl1=1 $lvl2=1
CA31 A0:27 net93:5 6.80054e-18 $lvl1=1 $lvl2=2
CA32 A0:25 net93:5 2.76683e-18 $lvl1=2 $lvl2=2
CA33 A0:17 net93:5 2.67693e-18 $lvl1=3 $lvl2=2
CA34 A0:17 net93:4 2.60753e-18 $lvl1=3 $lvl2=2
CA35 A0:15 net93:4 2.4926e-16 $lvl1=3 $lvl2=2
CA36 A0:23 net93:4 2.52663e-16 $lvl1=3 $lvl2=2
CA37 A0:27 net93:4 1.41375e-17 $lvl1=1 $lvl2=2
CA38 Mmn0@1:g VSS!:8 8.10468e-18 $lvl1=3 $lvl2=2
CA39 Mmn0:g VSS!:8 6.39707e-18 $lvl1=3 $lvl2=2
CA40 A0:17 VSS!:12 6.24916e-18 $lvl1=3 $lvl2=2
CA41 A0:25 VSS!:12 4.65217e-18 $lvl1=2 $lvl2=2
CA42 A0:29 VSS!:12 4.23165e-18 $lvl1=1 $lvl2=2
CA43 A0:29 VSS!:15 1.77449e-18 $lvl1=1 $lvl2=1
CA44 Mmn0@1:g VSS!:12 1.28477e-16 $lvl1=3 $lvl2=2
CA45 Mmn0:g VSS!:12 1.29422e-16 $lvl1=3 $lvl2=2
CA46 A0:17 VDD! 7.80981e-18 $lvl1=3 $lvl2=1
CA47 A0:23 VDD!:4 7.40508e-18 $lvl1=3 $lvl2=2
CA48 A0:15 VDD!:6 7.28628e-18 $lvl1=3 $lvl2=2
CA49 A0:27 VDD!:9 5.92069e-18 $lvl1=1 $lvl2=2
CA50 A0:17 VDD!:1 4.71976e-18 $lvl1=3 $lvl2=2
CA51 A0:27 VDD!:18 3.81625e-18 $lvl1=1 $lvl2=1
CA52 A0:29 VDD!:1 3.78425e-18 $lvl1=1 $lvl2=2
CA53 A0:25 VDD! 3.64983e-18 $lvl1=2 $lvl2=1
CA54 A0:25 VDD!:1 3.30049e-18 $lvl1=2 $lvl2=2
CA55 A0:17 VDD!:9 2.77946e-18 $lvl1=3 $lvl2=2
CA56 A0:27 VDD!:19 2.68817e-18 $lvl1=1 $lvl2=1
CA57 A0:25 VDD!:9 2.42781e-18 $lvl1=2 $lvl2=2
CA58 A0:26 VDD!:1 2.03884e-18 $lvl1=2 $lvl2=2
CA59 A0:26 VDD! 1.72568e-18 $lvl1=2 $lvl2=1
CA60 A0:15 VDD!:4 1.49848e-18 $lvl1=3 $lvl2=2
CA61 A0:23 VDD!:6 1.11661e-18 $lvl1=3 $lvl2=2
CA62 A0:17 Mmp0:s 1.05256e-18 $lvl1=3 $lvl2=4
CA63 A0:27 VDD!:1 2.86957e-17 $lvl1=1 $lvl2=2
CA64 A0:15 VDD!:9 2.49387e-16 $lvl1=3 $lvl2=2
CA65 A0:27 VDD! 2.44914e-17 $lvl1=1 $lvl2=1
CA66 A0:29 VDD! 1.61958e-17 $lvl1=1 $lvl2=1
CA67 A0:23 VDD!:1 2.57594e-16 $lvl1=3 $lvl2=2
CA68 A0:29 B0:31 8.68185e-18 $lvl1=1 $lvl2=1
CA69 A0:29 B0:33 4.71646e-18 $lvl1=1 $lvl2=1
CA70 A0:17 B0:29 4.47702e-18 $lvl1=3 $lvl2=2
CA71 A0:25 B0:31 4.07307e-18 $lvl1=2 $lvl2=1
CA72 A0:25 B0:27 2.48237e-18 $lvl1=2 $lvl2=2
CA73 A0:25 B0:17 2.24716e-18 $lvl1=2 $lvl2=3
CA74 A0:25 B0:33 2.22565e-18 $lvl1=2 $lvl2=1
CA75 A0:27 B0:33 1.63261e-18 $lvl1=1 $lvl2=1
CA76 A0:17 B0:23 1.31585e-18 $lvl1=3 $lvl2=3
CA77 A0:17 Mmn2:g 1.24278e-18 $lvl1=3 $lvl2=3
CA78 A0:15 B0:17 1.08638e-18 $lvl1=3 $lvl2=3
CA79 A0:17 B0:17 1.07026e-17 $lvl1=3 $lvl2=3
CA80 A0:25 B0:29 1.4977e-17 $lvl1=2 $lvl2=2
CA81 A0:27 B0:31 2.04924e-17 $lvl1=1 $lvl2=1
ReA1 A0:27 A0 0.310096 $metal1  $L=0.645 $W=0.260000 $SI_W=0.26 $TYPE=10 $DIR=1 $LLX=0.330000 $LLY=2.040000 $URX=0.590000 $URY=2.685000 $lvl=1
ReA2 A0 A0:28 0.165865 $metal1  $L=0.345 $W=0.260000 $SI_W=0.26 $TYPE=10 $DIR=1 $LLX=0.330000 $LLY=1.695000 $URX=0.590000 $URY=2.040000 $lvl=1
ReA3 A0:28 A0:29 0.120192 $metal1  $L=0.25 $W=0.260000 $SI_W=0.26 $TYPE=10 $DIR=1 $LLX=0.330000 $LLY=1.445000 $URX=0.590000 $URY=1.695000 $lvl=1
RfA4 A0:25 A0:26 17.317646 $li  $L=0.23 $W=0.170000 $SI_W=0.17 $TYPE=10 $DIR=0 $LLX=0.460000 $LLY=1.610000 $URX=0.690000 $URY=1.780000 $lvl=2
RgA5 A0:15 Mmp0@1:g 282.773346 $poly  $L=0.88 $W=0.150000 $SI_W=0.15 $TYPE=10 $DIR=1 $LLX=0.830000 $LLY=3.015000 $URX=0.980000 $URY=3.895000 $lvl=3
RgA6 Mmp0@1:g A0:16 418.638855 $poly  $L=1.31975 $W=0.150000 $SI_W=0.15 $TYPE=10 $DIR=1 $LLX=0.830000 $LLY=1.695000 $URX=0.980000 $URY=3.015000 $lvl=3
RgA7 A0:16 A0:17 31.439547 $poly  $L=0.21525 $W=0.330000 $SI_W=0.33 $TYPE=10 $DIR=0 $LLX=0.690000 $LLY=1.530000 $URX=0.905000 $URY=1.860000 $lvl=3
RgA8 A0:17 A0:18 31.366514 $poly  $L=0.21475 $W=0.330000 $SI_W=0.33 $TYPE=10 $DIR=0 $LLX=0.475000 $LLY=1.530000 $URX=0.690000 $URY=1.860000 $lvl=3
RgA9 A0:18 A0:19 46.784668 $poly  $L=0.16475 $W=0.170000 $SI_W=0.17 $TYPE=10 $DIR=1 $LLX=0.380000 $LLY=1.530000 $URX=0.550000 $URY=1.695000 $lvl=3
RgA10 A0:19 Mmn0:g 242.677551 $poly  $L=0.755 $W=0.150000 $SI_W=0.15 $TYPE=10 $DIR=1 $LLX=0.400000 $LLY=0.775000 $URX=0.550000 $URY=1.530000 $lvl=3
RgA11 A0:16 A0:20 46.784668 $poly  $L=0.16475 $W=0.170000 $SI_W=0.17 $TYPE=10 $DIR=1 $LLX=0.830000 $LLY=1.530000 $URX=1.000000 $URY=1.695000 $lvl=3
RgA12 A0:20 Mmn0@1:g 242.677551 $poly  $L=0.755 $W=0.150000 $SI_W=0.15 $TYPE=10 $DIR=1 $LLX=0.830000 $LLY=0.775000 $URX=0.980000 $URY=1.530000 $lvl=3
RgA13 Mmn0@1:g A0:21 170.306671 $poly  $L=0.53 $W=0.150000 $SI_W=0.15 $TYPE=10 $DIR=1 $LLX=0.830000 $LLY=0.245000 $URX=0.980000 $URY=0.775000 $lvl=3
RgA14 A0:18 A0:22 46.642902 $poly  $L=0.16425 $W=0.170000 $SI_W=0.17 $TYPE=10 $DIR=1 $LLX=0.380000 $LLY=1.695500 $URX=0.550000 $URY=1.859500 $lvl=3
RgA15 A0:22 Mmp0:g 371.210876 $poly  $L=1.155 $W=0.150000 $SI_W=0.15 $TYPE=10 $DIR=1 $LLX=0.400000 $LLY=1.859500 $URX=0.550000 $URY=3.014500 $lvl=3
RgA16 Mmp0:g A0:23 282.773346 $poly  $L=0.88 $W=0.150000 $SI_W=0.15 $TYPE=10 $DIR=1 $LLX=0.400000 $LLY=3.015000 $URX=0.550000 $URY=3.895000 $lvl=3
RgA17 Mmn0:g A0:24 170.306671 $poly  $L=0.53 $W=0.150000 $SI_W=0.15 $TYPE=10 $DIR=1 $LLX=0.400000 $LLY=0.245000 $URX=0.550000 $URY=0.775000 $lvl=3
RjA18 A0:26 A0:28 152.000000 $mcon  $L=0.17 $W=0.17 $A=0.0289 $VC=0 $SAVL=0 $SAVC=0 $SI_A=0.0289 $COVER_DIR=0 $LLX=0.000000 $LLY=0.000000 $URX=0.170000 $URY=0.170000 $lvl=6
RiA19 A0:17 A0:25 7.500000 $licon  $A=0.0578 $VC=0 $SAVL=0 $SAVC=0 $SI_A=0.0578 $COVER_DIR=0 $LLX=0.000000 $LLY=0.000000 $URX=-0.057800 $URY=-2.000000 $lvl=7
*
*|NET VSS! 3.07897e-15
*|P (VSS! X 0 2.4150 0.0050) // $llx=2.4150 $lly=0.0050 $urx=2.4150 $ury=0.0050 $lvl=1
*|I (Mmn3:b Mmn3 b X 0 3.5750 0.7750) // $llx=3.5750 $lly=0.7750 $urx=3.5750 $ury=0.7750 $lvl=8
*|I (Mmn3@1:b Mmn3@1 b X 0 4.0050 0.7750) // $llx=4.0050 $lly=0.7750 $urx=4.0050 $ury=0.7750 $lvl=8
*|I (Mmn2:b Mmn2 b X 0 1.3350 0.7750) // $llx=1.3350 $lly=0.7750 $urx=1.3350 $ury=0.7750 $lvl=8
*|I (Mmn2@1:b Mmn2@1 b X 0 1.7650 0.7750) // $llx=1.7650 $lly=0.7750 $urx=1.7650 $ury=0.7750 $lvl=8
*|I (Mmn1:s Mmn1 s X 0 2.7905 0.7750) // $llx=2.7905 $lly=0.7750 $urx=2.7905 $ury=0.7750 $lvl=4
*|I (Mmn1:b Mmn1 b X 0 2.7150 0.7750) // $llx=2.7150 $lly=0.7750 $urx=2.7150 $ury=0.7750 $lvl=8
*|I (Mmn1@1:s Mmn1@1 s X 0 3.0695 0.7750) // $llx=3.0695 $lly=0.7750 $urx=3.0695 $ury=0.7750 $lvl=4
*|I (Mmn1@1:b Mmn1@1 b X 0 3.1450 0.7750) // $llx=3.1450 $lly=0.7750 $urx=3.1450 $ury=0.7750 $lvl=8
*|I (Mmn0:s Mmn0 s X 0 0.5505 0.7750) // $llx=0.5505 $lly=0.7750 $urx=0.5505 $ury=0.7750 $lvl=4
*|I (Mmn0:b Mmn0 b X 0 0.4750 0.7750) // $llx=0.4750 $lly=0.7750 $urx=0.4750 $ury=0.7750 $lvl=8
*|I (Mmn0@1:s Mmn0@1 s X 0 0.8295 0.7750) // $llx=0.8295 $lly=0.7750 $urx=0.8295 $ury=0.7750 $lvl=4
*|I (Mmn0@1:b Mmn0@1 b X 0 0.9050 0.7750) // $llx=0.9050 $lly=0.7750 $urx=0.9050 $ury=0.7750 $lvl=8
*|S (VSS!:1 2.9300 1.1550) // $llx=2.9300 $lly=1.1550 $urx=2.9300 $ury=1.1550 $lvl=2
*|S (VSS!:3 2.9300 0.7750) // $llx=2.9300 $lly=0.7750 $urx=2.9300 $ury=0.7750 $lvl=2
*|S (VSS!:4 2.9300 0.0000) // $llx=2.9300 $lly=0.0000 $urx=2.9300 $ury=0.0000 $lvl=2
*|S (VSS!:5 2.3000 0.0000) // $llx=2.3000 $lly=0.0000 $urx=2.3000 $ury=0.0000 $lvl=2
*|S (VSS!:6 2.3000 0.0000) // $llx=2.3000 $lly=0.0000 $urx=2.3000 $ury=0.0000 $lvl=4
*|S (VSS!:8 0.6900 0.0000) // $llx=0.6900 $lly=0.0000 $urx=0.6900 $ury=0.0000 $lvl=2
*|S (VSS!:9 0.0000 0.0000) // $llx=0.0000 $lly=0.0000 $urx=0.0000 $ury=0.0000 $lvl=2
*|S (VSS!:10 4.5995 0.0000) // $llx=4.5995 $lly=0.0000 $urx=4.5995 $ury=0.0000 $lvl=2
*|S (VSS!:12 0.6900 0.7750) // $llx=0.6900 $lly=0.7750 $urx=0.6900 $ury=0.7750 $lvl=2
*|S (VSS!:13 0.6900 1.1550) // $llx=0.6900 $lly=1.1550 $urx=0.6900 $ury=1.1550 $lvl=2
*|S (VSS!:14 4.6000 0.0000) // $llx=4.6000 $lly=0.0000 $urx=4.6000 $ury=0.0000 $lvl=1
*|S (VSS!:15 2.3000 0.0000) // $llx=2.3000 $lly=0.0000 $urx=2.3000 $ury=0.0000 $lvl=1
*|S (VSS!:16 0.0000 0.0000) // $llx=0.0000 $lly=0.0000 $urx=0.0000 $ury=0.0000 $lvl=1
ReG148 VSS!:14 VSS! 0.682813 $metal1  $L=2.185 $W=0.400000 $SI_W=0.4 $TYPE=10 $DIR=0 $LLX=2.415000 $LLY=-0.199500 $URX=4.600000 $URY=0.200000 $lvl=1
ReG149 VSS! VSS!:15 0.035937 $metal1  $L=0.115 $W=0.400000 $SI_W=0.4 $TYPE=10 $DIR=0 $LLX=2.300000 $LLY=-0.199500 $URX=2.415000 $URY=0.200000 $lvl=1
ReG150 VSS!:15 VSS!:16 0.718750 $metal1  $L=2.3 $W=0.400000 $SI_W=0.4 $TYPE=10 $DIR=0 $LLX=0.000000 $LLY=-0.199500 $URX=2.300000 $URY=0.200000 $lvl=1
RfG151 VSS!:1 VSS!:3 28.611765 $li  $L=0.38 $W=0.170000 $SI_W=0.17 $TYPE=10 $DIR=1 $LLX=2.845000 $LLY=0.775000 $URX=3.015000 $URY=1.155000 $lvl=2
RfG152 VSS!:3 VSS!:4 55.328377 $li  $L=0.77475 $W=0.170000 $SI_W=0.17 $TYPE=10 $DIR=1 $LLX=2.845000 $LLY=0.000000 $URX=3.015000 $URY=0.775000 $lvl=2
RfG153 VSS!:4 VSS!:5 32.268803 $li  $L=0.63025 $W=0.250000 $SI_W=0.25 $TYPE=10 $DIR=0 $LLX=2.300000 $LLY=-0.124500 $URX=2.930000 $URY=0.125000 $lvl=2
RfG154 VSS!:5 VSS!:8 82.419205 $li  $L=1.60975 $W=0.250000 $SI_W=0.25 $TYPE=10 $DIR=0 $LLX=0.690000 $LLY=-0.124500 $URX=2.300000 $URY=0.125000 $lvl=2
RfG155 VSS!:8 VSS!:9 35.340801 $li  $L=0.69025 $W=0.250000 $SI_W=0.25 $TYPE=10 $DIR=0 $LLX=0.000000 $LLY=-0.124500 $URX=0.690000 $URY=0.125000 $lvl=2
RfG156 VSS!:4 VSS!:10 85.465599 $li  $L=1.66925 $W=0.250000 $SI_W=0.25 $TYPE=10 $DIR=0 $LLX=2.930000 $LLY=-0.124500 $URX=4.599000 $URY=0.125000 $lvl=2
RfG157 VSS!:8 VSS!:12 55.328377 $li  $L=0.77475 $W=0.170000 $SI_W=0.17 $TYPE=10 $DIR=1 $LLX=0.605000 $LLY=0.000000 $URX=0.775000 $URY=0.775000 $lvl=2
RfG158 VSS!:12 VSS!:13 28.611765 $li  $L=0.38 $W=0.170000 $SI_W=0.17 $TYPE=10 $DIR=1 $LLX=0.605000 $LLY=0.775000 $URX=0.775000 $URY=1.155000 $lvl=2
RhG159 Mmn1:s VSS!:3 7.500000 $licon_diff  $A=0.0578 $VC=0 $SAVL=0 $SAVC=0 $SI_A=0.0578 $COVER_DIR=0 $LLX=0.000000 $LLY=0.000000 $URX=-0.057800 $URY=-2.000000 $lvl=5
RhG160 Mmn0:s VSS!:12 7.500000 $licon_diff  $A=0.0578 $VC=0 $SAVL=0 $SAVC=0 $SI_A=0.0578 $COVER_DIR=0 $LLX=0.000000 $LLY=0.000000 $URX=-0.057800 $URY=-2.000000 $lvl=5
Rh_3_G161 VSS!:6 VSS!:5 1.666667 $licon_diff  $A=0.2601 $VC=0 $SAVL=0 $SAVC=0 $SI_A=0.2601 $COVER_DIR=0 $LLX=0.000000 $LLY=0.000000 $URX=-0.260100 $URY=-9.000000 $lvl=5
RjG162 VSS!:5 VSS!:15 16.888889 $mcon  $A=0.2601 $VC=0 $SAVL=0 $SAVC=0 $SI_A=0.2601 $COVER_DIR=0 $LLX=0.000000 $LLY=0.000000 $URX=-0.260100 $URY=-9.000000 $lvl=6
RmwG163 Mmn3:b VSS! 0.001000 $FOX $W=1000000 $SI_W=1000000 $TYPE=1 $DIR=0
RmwG164 Mmn3@1:b VSS! 0.001000 $FOX $W=1000000 $SI_W=1000000 $TYPE=1 $DIR=0
RmwG165 Mmn2:b VSS! 0.001000 $FOX $W=1000000 $SI_W=1000000 $TYPE=1 $DIR=0
RmwG166 Mmn2@1:b VSS! 0.001000 $FOX $W=1000000 $SI_W=1000000 $TYPE=1 $DIR=0
RmwG167 Mmn1:b VSS! 0.001000 $FOX $W=1000000 $SI_W=1000000 $TYPE=1 $DIR=0
RmwG168 Mmn1@1:s Mmn1:s 0.001000 $diff $W=1000000 $SI_W=1000000 $TYPE=1 $DIR=0
RmwG169 Mmn1@1:b VSS! 0.001000 $FOX $W=1000000 $SI_W=1000000 $TYPE=1 $DIR=0
RmwG170 Mmn0:b VSS! 0.001000 $FOX $W=1000000 $SI_W=1000000 $TYPE=1 $DIR=0
RmwG171 Mmn0@1:s Mmn0:s 0.001000 $diff $W=1000000 $SI_W=1000000 $TYPE=1 $DIR=0
RmwG172 Mmn0@1:b VSS! 0.001000 $FOX $W=1000000 $SI_W=1000000 $TYPE=1 $DIR=0
*
*|NET VDD! 3.31214e-15
*|P (VDD! X 0 2.4150 4.1450) // $llx=2.4150 $lly=4.1450 $urx=2.4150 $ury=4.1450 $lvl=1
*|I (Mmp0:s Mmp0 s X 0 0.3995 3.0150) // $llx=0.3995 $lly=3.0150 $urx=0.3995 $ury=3.0150 $lvl=4
*|I (Mmp0:b Mmp0 b X 0 0.4750 3.0150) // $llx=0.4750 $lly=3.0150 $urx=0.4750 $ury=3.0150 $lvl=8
*|I (Mmp0@1:s Mmp0@1 s X 0 0.9805 3.0150) // $llx=0.9805 $lly=3.0150 $urx=0.9805 $ury=3.0150 $lvl=4
*|I (Mmp0@1:b Mmp0@1 b X 0 0.9050 3.0150) // $llx=0.9050 $lly=3.0150 $urx=0.9050 $ury=3.0150 $lvl=8
*|I (Mmp2:s Mmp2 s X 0 1.2595 3.0150) // $llx=1.2595 $lly=3.0150 $urx=1.2595 $ury=3.0150 $lvl=4
*|I (Mmp2:b Mmp2 b X 0 1.3350 3.0150) // $llx=1.3350 $lly=3.0150 $urx=1.3350 $ury=3.0150 $lvl=8
*|I (Mmp2@1:s Mmp2@1 s X 0 1.8405 3.0150) // $llx=1.8405 $lly=3.0150 $urx=1.8405 $ury=3.0150 $lvl=4
*|I (Mmp2@1:b Mmp2@1 b X 0 1.7650 3.0150) // $llx=1.7650 $lly=3.0150 $urx=1.7650 $ury=3.0150 $lvl=8
*|I (Mmp3:b Mmp3 b X 0 3.5750 3.0150) // $llx=3.5750 $lly=3.0150 $urx=3.5750 $ury=3.0150 $lvl=8
*|I (Mmp3@1:b Mmp3@1 b X 0 4.0050 3.0150) // $llx=4.0050 $lly=3.0150 $urx=4.0050 $ury=3.0150 $lvl=8
*|I (Mmp1:b Mmp1 b X 0 2.7150 3.0150) // $llx=2.7150 $lly=3.0150 $urx=2.7150 $ury=3.0150 $lvl=8
*|I (Mmp1@1:b Mmp1@1 b X 0 3.1450 3.0150) // $llx=3.1450 $lly=3.0150 $urx=3.1450 $ury=3.0150 $lvl=8
*|S (VDD!:1 0.2600 2.2850) // $llx=0.2600 $lly=2.2850 $urx=0.2600 $ury=2.2850 $lvl=2
*|S (VDD!:3 0.2600 3.0150) // $llx=0.2600 $lly=3.0150 $urx=0.2600 $ury=3.0150 $lvl=2
*|S (VDD!:4 0.2600 4.1400) // $llx=0.2600 $lly=4.1400 $urx=0.2600 $ury=4.1400 $lvl=2
*|S (VDD!:5 0.0000 4.1400) // $llx=0.0000 $lly=4.1400 $urx=0.0000 $ury=4.1400 $lvl=2
*|S (VDD!:6 1.1200 4.1400) // $llx=1.1200 $lly=4.1400 $urx=1.1200 $ury=4.1400 $lvl=2
*|S (VDD!:8 1.1200 3.0150) // $llx=1.1200 $lly=3.0150 $urx=1.1200 $ury=3.0150 $lvl=2
*|S (VDD!:9 1.1200 2.2850) // $llx=1.1200 $lly=2.2850 $urx=1.1200 $ury=2.2850 $lvl=2
*|S (VDD!:10 1.9800 4.1400) // $llx=1.9800 $lly=4.1400 $urx=1.9800 $ury=4.1400 $lvl=2
*|S (VDD!:12 1.9800 3.0150) // $llx=1.9800 $lly=3.0150 $urx=1.9800 $ury=3.0150 $lvl=2
*|S (VDD!:13 1.9800 2.2850) // $llx=1.9800 $lly=2.2850 $urx=1.9800 $ury=2.2850 $lvl=2
*|S (VDD!:14 2.3000 4.1400) // $llx=2.3000 $lly=4.1400 $urx=2.3000 $ury=4.1400 $lvl=2
*|S (VDD!:15 2.3000 4.1400) // $llx=2.3000 $lly=4.1400 $urx=2.3000 $ury=4.1400 $lvl=4
*|S (VDD!:17 4.6000 4.1400) // $llx=4.6000 $lly=4.1400 $urx=4.6000 $ury=4.1400 $lvl=1
*|S (VDD!:18 2.3000 4.1400) // $llx=2.3000 $lly=4.1400 $urx=2.3000 $ury=4.1400 $lvl=1
*|S (VDD!:19 0.0000 4.1400) // $llx=0.0000 $lly=4.1400 $urx=0.0000 $ury=4.1400 $lvl=1
CF1 Mmp2@1:s VSS! 3.10761e-18 $lvl=4
CF2 Mmp0@1:s VSS! 2.08157e-18 $lvl=4
CF3 Mmp0:s VSS! 2.54045e-18 $lvl=4
CF4 VDD!:18 VSS! 2.15028e-17 $lvl=1
CF5 VDD!:17 VSS! 8.27688e-18 $lvl=1
CF6 VDD!:19 VSS! 8.24163e-18 $lvl=1
CF7 VDD!:12 VSS! 1.40959e-17 $lvl=2
CF8 VDD!:1 VSS! 1.12351e-17 $lvl=2
CF9 VDD!:9 VSS! 6.5482e-18 $lvl=2
CF10 VDD!:6 VSS! 2.75715e-18 $lvl=2
CF11 VDD!:4 VSS! 3.51111e-18 $lvl=2
CF12 VDD!:5 VSS! 2.00371e-18 $lvl=2
CF13 VDD!:15 VSS! 5.10449e-18 $lvl=4
CF14 VDD!:14 VSS! 7.37965e-18 $lvl=2
CF15 VDD! VSS! 1.64453e-17 $lvl=1
CF16 VDD! net102:25 8.87526e-18 $lvl1=1 $lvl2=1
CF17 VDD! net102:35 5.17315e-18 $lvl1=1 $lvl2=1
CF18 VDD! net102:29 4.33968e-18 $lvl1=1 $lvl2=1
CF19 VDD! net102:34 3.86983e-18 $lvl1=1 $lvl2=1
CF20 VDD! net102:4 3.75785e-18 $lvl1=1 $lvl2=2
CF21 VDD! net102:38 1.00479e-17 $lvl1=1 $lvl2=1
CF22 VDD! net102 2.32808e-17 $lvl1=1 $lvl2=2
CF23 VDD! net102:27 2.40441e-17 $lvl1=1 $lvl2=1
CF24 VDD! net102:21 1.73713e-17 $lvl1=1 $lvl2=2
CF25 VDD!:1 net93:13 9.68837e-18 $lvl1=2 $lvl2=1
CF26 VDD! net93:12 8.86105e-18 $lvl1=1 $lvl2=1
CF27 VDD!:1 net93:5 7.94321e-18 $lvl1=2 $lvl2=2
CF28 VDD!:9 net93:5 7.76549e-18 $lvl1=2 $lvl2=2
CF29 VDD!:19 net93:13 6.95294e-18 $lvl1=1 $lvl2=1
CF30 VDD!:14 net93:13 5.61339e-18 $lvl1=2 $lvl2=1
CF31 VDD!:12 net93:13 4.28261e-18 $lvl1=2 $lvl2=1
CF32 VDD!:6 net93:13 4.01441e-18 $lvl1=2 $lvl2=1
CF33 VDD!:18 net93:7 3.67259e-18 $lvl1=1 $lvl2=2
CF34 VDD!:14 net93:7 3.014e-18 $lvl1=2 $lvl2=2
CF35 VDD!:18 net93:4 2.93819e-18 $lvl1=1 $lvl2=2
CF36 VDD!:18 net93:6 2.63563e-18 $lvl1=1 $lvl2=2
CF37 VDD!:1 net93:2 2.58953e-18 $lvl1=2 $lvl2=2
CF38 VDD!:9 net93:2 2.33073e-18 $lvl1=2 $lvl2=2
CF39 VDD!:14 net93:4 1.9466e-18 $lvl1=2 $lvl2=2
CF40 VDD!:14 Mmp1:s 1.82104e-18 $lvl1=2 $lvl2=4
CF41 VDD!:18 net93:2 1.57038e-18 $lvl1=1 $lvl2=2
CF42 VDD!:4 net93:13 1.43357e-18 $lvl1=2 $lvl2=1
CF43 Mmp0:s net93:4 1.43339e-18 $lvl1=4 $lvl2=2
CF44 VDD!:6 Mmp0:d 1.40054e-18 $lvl1=2 $lvl2=4
CF45 VDD!:1 Mmp0:d 1.3377e-18 $lvl1=2 $lvl2=4
CF46 Mmp0@1:s net93:4 1.14775e-18 $lvl1=4 $lvl2=2
CF47 VDD!:1 net93:4 1.03229e-16 $lvl1=2 $lvl2=2
CF48 VDD! net93:13 1.82173e-17 $lvl1=1 $lvl2=1
CF49 VDD!:9 net93:4 9.64631e-17 $lvl1=2 $lvl2=2
CF50 VDD! net93:6 1.16536e-17 $lvl1=1 $lvl2=2
CF51 VDD!:18 net93:13 1.14703e-16 $lvl1=1 $lvl2=1
CF52 VDD!:12 net93:12 1.42321e-17 $lvl1=2 $lvl2=1
CF53 VDD!:14 net93:12 1.14764e-17 $lvl1=2 $lvl2=1
CF54 VDD!:6 net93:4 1.20529e-17 $lvl1=2 $lvl2=2
CF55 VDD! net93:4 1.03825e-17 $lvl1=1 $lvl2=2
CF56 VDD!:4 net93:4 1.09571e-17 $lvl1=2 $lvl2=2
CF57 VDD!:9 net93:13 2.11346e-17 $lvl1=2 $lvl2=1
CF58 VDD!:14 net93:6 2.32942e-17 $lvl1=2 $lvl2=2
CF59 VDD!:18 net93:12 1.14231e-16 $lvl1=1 $lvl2=1
CF60 VDD! net85:13 9.99031e-18 $lvl1=1 $lvl2=1
CF61 VDD!:12 net85:5 9.2536e-18 $lvl1=2 $lvl2=2
CF62 VDD!:18 net85:13 8.25281e-18 $lvl1=1 $lvl2=1
CF63 VDD!:9 net85:5 7.66743e-18 $lvl1=2 $lvl2=2
CF64 VDD!:18 net85:6 6.28984e-18 $lvl1=1 $lvl2=2
CF65 VDD!:9 net85:13 5.10957e-18 $lvl1=2 $lvl2=1
CF66 VDD!:9 net85:2 3.24018e-18 $lvl1=2 $lvl2=2
CF67 VDD!:18 net85 3.22432e-18 $lvl1=1 $lvl2=2
CF68 VDD!:12 net85:2 3.20182e-18 $lvl1=2 $lvl2=2
CF69 VDD!:14 net85:12 2.69818e-18 $lvl1=2 $lvl2=1
CF70 VDD!:17 net85:12 2.24707e-18 $lvl1=1 $lvl2=1
CF71 VDD! net85:6 2.13906e-18 $lvl1=1 $lvl2=2
CF72 VDD!:14 Mmp3:s 2.04357e-18 $lvl1=2 $lvl2=4
CF73 VDD!:12 Mmp2:d 1.53693e-18 $lvl1=2 $lvl2=4
CF74 VDD!:14 net85:6 2.41254e-17 $lvl1=2 $lvl2=2
CF75 VDD!:14 net85 1.29728e-17 $lvl1=2 $lvl2=2
CF76 VDD!:12 net85 9.96195e-17 $lvl1=2 $lvl2=2
CF77 VDD! net85:12 1.1598e-17 $lvl1=1 $lvl2=1
CF78 VDD!:9 net85 9.1177e-17 $lvl1=2 $lvl2=2
CF79 VDD!:6 net85 1.17835e-17 $lvl1=2 $lvl2=2
CF80 VDD!:18 net85:12 2.30026e-17 $lvl1=1 $lvl2=1
CF81 VDD!:12 net85:13 2.59446e-17 $lvl1=2 $lvl2=1
CF82 VDD! VSS!:15 1.13901e-16 $lvl1=1 $lvl2=1
CF83 VDD! VSS!:14 3.17585e-17 $lvl1=1 $lvl2=1
CF84 VDD! VSS!:16 2.77911e-17 $lvl1=1 $lvl2=1
CF85 VDD! VSS!:10 3.83763e-17 $lvl1=1 $lvl2=2
CF86 VDD! VSS!:8 8.96082e-17 $lvl1=1 $lvl2=2
CF87 VDD! VSS!:9 1.82528e-17 $lvl1=1 $lvl2=2
CF88 VDD! VSS!:5 1.31409e-17 $lvl1=1 $lvl2=2
ReF121 VDD!:17 VDD! 0.682813 $metal1  $L=2.185 $W=0.400000 $SI_W=0.4 $TYPE=10 $DIR=0 $LLX=2.415000 $LLY=3.940000 $URX=4.600000 $URY=4.340000 $lvl=1
ReF122 VDD! VDD!:18 0.035937 $metal1  $L=0.115 $W=0.400000 $SI_W=0.4 $TYPE=10 $DIR=0 $LLX=2.300000 $LLY=3.940000 $URX=2.415000 $URY=4.340000 $lvl=1
ReF123 VDD!:18 VDD!:19 0.718750 $metal1  $L=2.3 $W=0.400000 $SI_W=0.4 $TYPE=10 $DIR=0 $LLX=0.000000 $LLY=3.940000 $URX=2.300000 $URY=4.340000 $lvl=1
RfF124 VDD!:1 VDD!:3 54.964703 $li  $L=0.73 $W=0.170000 $SI_W=0.17 $TYPE=10 $DIR=1 $LLX=0.175000 $LLY=2.285000 $URX=0.345000 $URY=3.015000 $lvl=2
RfF125 VDD!:3 VDD!:4 81.706917 $li  $L=1.12525 $W=0.170000 $SI_W=0.17 $TYPE=10 $DIR=1 $LLX=0.175000 $LLY=3.015000 $URX=0.345000 $URY=4.140000 $lvl=2
RfF126 VDD!:4 VDD!:5 13.324800 $li  $L=0.26025 $W=0.250000 $SI_W=0.25 $TYPE=10 $DIR=0 $LLX=0.000000 $LLY=4.015000 $URX=0.260000 $URY=4.265000 $lvl=2
RfF127 VDD!:4 VDD!:6 44.031998 $li  $L=0.86 $W=0.250000 $SI_W=0.25 $TYPE=10 $DIR=0 $LLX=0.260000 $LLY=4.015000 $URX=1.120000 $URY=4.265000 $lvl=2
RfF128 VDD!:6 VDD!:8 81.706917 $li  $L=1.12525 $W=0.170000 $SI_W=0.17 $TYPE=10 $DIR=1 $LLX=1.035000 $LLY=3.015000 $URX=1.205000 $URY=4.140000 $lvl=2
RfF129 VDD!:8 VDD!:9 54.964703 $li  $L=0.73 $W=0.170000 $SI_W=0.17 $TYPE=10 $DIR=1 $LLX=1.035000 $LLY=2.285000 $URX=1.205000 $URY=3.015000 $lvl=2
RfF130 VDD!:6 VDD!:10 44.031998 $li  $L=0.86 $W=0.250000 $SI_W=0.25 $TYPE=10 $DIR=0 $LLX=1.120000 $LLY=4.015000 $URX=1.980000 $URY=4.265000 $lvl=2
RfF131 VDD!:10 VDD!:12 81.706917 $li  $L=1.12525 $W=0.170000 $SI_W=0.17 $TYPE=10 $DIR=1 $LLX=1.895000 $LLY=3.015000 $URX=2.065000 $URY=4.140000 $lvl=2
RfF132 VDD!:12 VDD!:13 54.964703 $li  $L=0.73 $W=0.170000 $SI_W=0.17 $TYPE=10 $DIR=1 $LLX=1.895000 $LLY=2.285000 $URX=2.065000 $URY=3.015000 $lvl=2
RfF133 VDD!:10 VDD!:14 16.371201 $li  $L=0.31975 $W=0.250000 $SI_W=0.25 $TYPE=10 $DIR=0 $LLX=1.980000 $LLY=4.015000 $URX=2.300000 $URY=4.265000 $lvl=2
Rh_1_F134 VDD!:15 VDD!:14 1.666667 $licon_diff  $A=0.2601 $VC=0 $SAVL=0 $SAVC=0 $SI_A=0.2601 $COVER_DIR=0 $LLX=0.000000 $LLY=0.000000 $URX=-0.260100 $URY=-9.000000 $lvl=5
Rh_2_F135 Mmp0:s VDD!:3 3.750000 $licon_diff  $A=0.1156 $VC=0 $SAVL=0 $SAVC=0 $SI_A=0.1156 $COVER_DIR=0 $LLX=0.000000 $LLY=0.000000 $URX=-0.115600 $URY=-4.000000 $lvl=5
Rh_2_F136 Mmp0@1:s VDD!:8 3.750000 $licon_diff  $A=0.1156 $VC=0 $SAVL=0 $SAVC=0 $SI_A=0.1156 $COVER_DIR=0 $LLX=0.000000 $LLY=0.000000 $URX=-0.115600 $URY=-4.000000 $lvl=5
Rh_2_F137 Mmp2@1:s VDD!:12 3.750000 $licon_diff  $A=0.1156 $VC=0 $SAVL=0 $SAVC=0 $SI_A=0.1156 $COVER_DIR=0 $LLX=0.000000 $LLY=0.000000 $URX=-0.115600 $URY=-4.000000 $lvl=5
RjF138 VDD!:14 VDD!:18 16.888889 $mcon  $A=0.2601 $VC=0 $SAVL=0 $SAVC=0 $SI_A=0.2601 $COVER_DIR=0 $LLX=0.000000 $LLY=0.000000 $URX=-0.260100 $URY=-9.000000 $lvl=6
RmwF139 Mmp0:b VDD! 0.001000 $FOX $W=1000000 $SI_W=1000000 $TYPE=1 $DIR=0
RmwF140 Mmp0@1:b VDD! 0.001000 $FOX $W=1000000 $SI_W=1000000 $TYPE=1 $DIR=0
RmwF141 Mmp2:s Mmp0@1:s 0.001000 $diff $W=1000000 $SI_W=1000000 $TYPE=1 $DIR=0
RmwF142 Mmp2:b VDD! 0.001000 $FOX $W=1000000 $SI_W=1000000 $TYPE=1 $DIR=0
RmwF143 Mmp2@1:b VDD! 0.001000 $FOX $W=1000000 $SI_W=1000000 $TYPE=1 $DIR=0
RmwF144 Mmp3:b VDD! 0.001000 $FOX $W=1000000 $SI_W=1000000 $TYPE=1 $DIR=0
RmwF145 Mmp3@1:b VDD! 0.001000 $FOX $W=1000000 $SI_W=1000000 $TYPE=1 $DIR=0
RmwF146 Mmp1:b VDD! 0.001000 $FOX $W=1000000 $SI_W=1000000 $TYPE=1 $DIR=0
RmwF147 Mmp1@1:b VDD! 0.001000 $FOX $W=1000000 $SI_W=1000000 $TYPE=1 $DIR=0
*
*|NET A1 2.00091e-15
*|P (A1 X 0 2.7750 1.7350) // $llx=2.7750 $lly=1.7350 $urx=2.7750 $ury=1.7350 $lvl=1
*|I (Mmp1:g Mmp1 g X 0 2.7150 3.0150) // $llx=2.7150 $lly=3.0150 $urx=2.7150 $ury=3.0150 $lvl=3
*|I (Mmp1@1:g Mmp1@1 g X 0 3.1450 3.0150) // $llx=3.1450 $lly=3.0150 $urx=3.1450 $ury=3.0150 $lvl=3
*|I (Mmn1:g Mmn1 g X 0 2.7150 0.7750) // $llx=2.7150 $lly=0.7750 $urx=2.7150 $ury=0.7750 $lvl=3
*|I (Mmn1@1:g Mmn1@1 g X 0 3.1450 0.7750) // $llx=3.1450 $lly=0.7750 $urx=3.1450 $ury=0.7750 $lvl=3
*|S (A1:15 3.1450 3.8950) // $llx=3.1450 $lly=3.8950 $urx=3.1450 $ury=3.8950 $lvl=3
*|S (A1:16 3.1450 1.6950) // $llx=3.1450 $lly=1.6950 $urx=3.1450 $ury=1.6950 $lvl=3
*|S (A1:17 2.9300 1.6950) // $llx=2.9300 $lly=1.6950 $urx=2.9300 $ury=1.6950 $lvl=3
*|S (A1:18 2.7150 1.6950) // $llx=2.7150 $lly=1.6950 $urx=2.7150 $ury=1.6950 $lvl=3
*|S (A1:19 2.7050 1.5300) // $llx=2.7050 $lly=1.5300 $urx=2.7050 $ury=1.5300 $lvl=3
*|S (A1:20 3.1550 1.5300) // $llx=3.1550 $lly=1.5300 $urx=3.1550 $ury=1.5300 $lvl=3
*|S (A1:21 3.1450 0.2450) // $llx=3.1450 $lly=0.2450 $urx=3.1450 $ury=0.2450 $lvl=3
*|S (A1:22 2.7050 1.8595) // $llx=2.7050 $lly=1.8595 $urx=2.7050 $ury=1.8595 $lvl=3
*|S (A1:23 2.7150 3.8950) // $llx=2.7150 $lly=3.8950 $urx=2.7150 $ury=3.8950 $lvl=3
*|S (A1:24 2.7150 0.2450) // $llx=2.7150 $lly=0.2450 $urx=2.7150 $ury=0.2450 $lvl=3
*|S (A1:25 2.9300 1.6950) // $llx=2.9300 $lly=1.6950 $urx=2.9300 $ury=1.6950 $lvl=2
*|S (A1:26 2.7600 1.6950) // $llx=2.7600 $lly=1.6950 $urx=2.7600 $ury=1.6950 $lvl=2
*|S (A1:27 2.7600 2.3800) // $llx=2.7600 $lly=2.3800 $urx=2.7600 $ury=2.3800 $lvl=1
*|S (A1:28 2.7600 1.6950) // $llx=2.7600 $lly=1.6950 $urx=2.7600 $ury=1.6950 $lvl=1
*|S (A1:29 2.7600 1.1400) // $llx=2.7600 $lly=1.1400 $urx=2.7600 $ury=1.1400 $lvl=1
CB1 Mmn1:g VSS! 1.50992e-18 $lvl=3
CB2 A1:15 VSS! 3.44524e-18 $lvl=3
CB3 A1:23 VSS! 4.26406e-18 $lvl=3
CB4 A1:21 VSS! 9.92151e-19 $lvl=3
CB5 A1:27 VSS! 1.45208e-17 $lvl=1
CB6 A1:29 VSS! 1.02878e-17 $lvl=1
CB7 A1:25 VSS! 7.91113e-18 $lvl=2
CB8 A1:26 VSS! 1.07878e-17 $lvl=2
CB9 A1:17 VSS! 3.35859e-17 $lvl=3
CB10 A1 VSS! 1.2103e-17 $lvl=1
CB11 A1:29 net102:13 5.57954e-18 $lvl1=1 $lvl2=2
CB12 A1:17 net102:13 5.04061e-18 $lvl1=3 $lvl2=2
CB13 A1:17 net102:20 3.32194e-18 $lvl1=3 $lvl2=2
CB14 A1:25 net102:20 2.85561e-18 $lvl1=2 $lvl2=2
CB15 A1:25 net102:13 2.47537e-18 $lvl1=2 $lvl2=2
CB16 A1:26 net102:13 1.88481e-18 $lvl1=2 $lvl2=2
CB17 A1:29 net102:20 1.61328e-18 $lvl1=1 $lvl2=2
CB18 A1:17 net102:12 1.4879e-18 $lvl1=3 $lvl2=2
CB19 A1:29 net102:12 1.47253e-18 $lvl1=1 $lvl2=2
CB20 Mmn1:g net102:12 1.35571e-18 $lvl1=3 $lvl2=2
CB21 A1:29 net102:34 1.11991e-18 $lvl1=1 $lvl2=1
CB22 A1:29 net102:35 9.67971e-19 $lvl1=1 $lvl2=1
CB23 A1:17 Mmn1:d 9.46272e-19 $lvl1=3 $lvl2=4
CB24 A1:25 net102:12 8.65091e-19 $lvl1=2 $lvl2=2
CB25 Mmn1:g net102:20 8.0085e-19 $lvl1=3 $lvl2=2
CB26 A1:21 net102:13 7.27833e-19 $lvl1=3 $lvl2=2
CB27 A1:17 Mmn3:s 6.45289e-19 $lvl1=3 $lvl2=4
CB28 A1:21 net102:20 1.24638e-16 $lvl1=3 $lvl2=2
CB29 Mmn1:g net102:13 1.28054e-16 $lvl1=3 $lvl2=2
CB30 A1:27 net93:10 6.14953e-18 $lvl1=1 $lvl2=2
CB31 A1:27 net93:6 4.02732e-18 $lvl1=1 $lvl2=2
CB32 A1:17 net93:6 2.62599e-18 $lvl1=3 $lvl2=2
CB33 A1:25 net93:10 2.55342e-18 $lvl1=2 $lvl2=2
CB34 A1:17 net93:10 2.46568e-18 $lvl1=3 $lvl2=2
CB35 A1:15 net93:6 2.56058e-16 $lvl1=3 $lvl2=2
CB36 A1:23 net93:6 2.48995e-16 $lvl1=3 $lvl2=2
CB37 A1:27 net85:13 2.64477e-18 $lvl1=1 $lvl2=1
CB38 Mmn1:g VSS!:8 9.45539e-18 $lvl1=3 $lvl2=2
CB39 A1:21 VSS!:8 8.7639e-18 $lvl1=3 $lvl2=2
CB40 A1:17 VSS!:1 6.19095e-18 $lvl1=3 $lvl2=2
CB41 A1:29 VSS!:1 5.55481e-18 $lvl1=1 $lvl2=2
CB42 A1:25 VSS!:1 4.35699e-18 $lvl1=2 $lvl2=2
CB43 Mmn1:g VSS!:1 1.28622e-16 $lvl1=3 $lvl2=2
CB44 A1:21 VSS!:1 1.26399e-16 $lvl1=3 $lvl2=2
CB45 A1:23 VDD!:14 8.70246e-18 $lvl1=3 $lvl2=2
CB46 A1:15 VDD!:14 8.10071e-18 $lvl1=3 $lvl2=2
CB47 A1:27 VDD! 5.90048e-18 $lvl1=1 $lvl2=1
CB48 A1:29 VDD! 3.59108e-18 $lvl1=1 $lvl2=1
CB49 A1:17 VDD! 3.43063e-18 $lvl1=3 $lvl2=1
CB50 A1 VDD! 2.86895e-18 $lvl1=1 $lvl2=1
CB51 A1:27 VDD!:12 2.78402e-18 $lvl1=1 $lvl2=2
CB52 A1:17 VDD!:12 1.61419e-18 $lvl1=3 $lvl2=2
CB53 A1:27 Y:10 5.32738e-18 $lvl1=1 $lvl2=2
CB54 A1:27 Y:6 3.20827e-18 $lvl1=1 $lvl2=2
CB55 A1 Y:31 2.97225e-18 $lvl1=1 $lvl2=1
CB56 A1:27 Y:31 2.49896e-18 $lvl1=1 $lvl2=1
CB57 A1:17 Y:6 2.19395e-18 $lvl1=3 $lvl2=2
CB58 A1 Y:26 2.11151e-18 $lvl1=1 $lvl2=1