*
*|DSPF 1.5
*
*|DATE "Wed Jan  8 20:12:15 2025"
*|VENDOR "Cadence Design Systems"
*|PROGRAM "Cadence Quantus Extraction"
*|VERSION "22.1.0-p089 Linux 64 bit - (Thu Jan 19 11:47:08 PST 2023)"
*|DESIGN OAI21X2_HS
*|DIVIDER /
*|DELIMITER :
*|DeviceFingerDelim "@"
*|BUSBIT []
*|GLOBAL_TEMPERATURE 25
*|OPERATING_TEMPERATURE 25

** *VIA_COVERAGE_CODES
** *index FF FS FP FU SF SS SP SU PF PS PP PU UF US UP UU X_by_Y
** * "FF" stands for Full landing and Full coverage
** *0 0 0 0 0 0 0 0 0 0 0 0 0 0 0 0 0
** *1 0 0 0 0 0 0 0 0 0 0 0 0 0 0 0 1 1x1
** *2 0 0 0 0 0 0 0 0 0 0 0 0 0 0 1 0 1x1
** *3 0 0 0 0 0 0 0 0 0 0 0 0 0 1 0 0 1x1
** *4 0 0 0 0 0 0 0 0 0 0 0 0 1 0 0 0 1x1
** *5 0 0 0 0 0 0 0 0 0 0 0 1 0 0 0 0 1x1
** *6 0 0 0 0 0 0 0 0 0 0 1 0 0 0 0 0 1x1
** *7 0 0 0 0 0 0 0 0 0 1 0 0 0 0 0 0 1x1
** *8 0 0 0 0 0 0 0 0 1 0 0 0 0 0 0 0 1x1
** *9 0 0 0 0 0 0 0 1 0 0 0 0 0 0 0 0 1x1
** *10 0 0 0 0 0 0 1 0 0 0 0 0 0 0 0 0 1x1
** *11 0 0 0 0 0 1 0 0 0 0 0 0 0 0 0 0 1x1
** *12 0 0 0 0 1 0 0 0 0 0 0 0 0 0 0 0 1x1
** *13 0 0 0 1 0 0 0 0 0 0 0 0 0 0 0 0 1x1
** *14 0 0 1 0 0 0 0 0 0 0 0 0 0 0 0 0 1x1
** *15 0 1 0 0 0 0 0 0 0 0 0 0 0 0 0 0 1x1
** *16 1 0 0 0 0 0 0 0 0 0 0 0 0 0 0 0 1x1

** *RESISTOR_TYPES
** *1 SHORTING_ELEMENT
** *2 PRES_NG
** *3 PRES_PG
** *4 PRES_NF
** *5 PRES_PF
** *6 TCN_NDIFF
** *7 TCN_PDIFF
** *8 TCN_NFIELD
** *9 TCN_PFIELD
** *10 QUALITY_EXTRACTED
** *11 GCNLAND
** *12 TCNLAND
** *13 DUMMY
** *14 RSD
** *15 BRIDGE

** *RESISTOR_CURRENT_DIRECTION
** *0 HORIZONTAL
** *1 VERTICAL
** *2 45 DEGREE

** QRC_TECH_DIR /vols/wfo_devel/projects/reference_SKY130/tech/sky130_release_0.0.4/quantus/extraction/typical 
** HIERARCHICAL_SPLIT_PINS_DELIMITER '%'
** caps2d version: 10
*
.SUBCKT  OAI21X2_HS A0 A1 B0 Y
*
*Net Section
*
*|GROUND_NET VSS!
*
*LAYER_MAP
*0 none
*1 metal1
*2 li
*3 poly
*4 diff
*5 licon_diff
*6 mcon
*7 licon
*8 FOX

*|NET A0 1.98726e-15
*|P (A0 X 0 0.4750 1.4550) // $llx=0.4750 $lly=1.4550 $urx=0.4750 $ury=1.4550 $lvl=1
*|I (Mmp0:g Mmp0 g X 0 0.4750 3.0150) // $llx=0.4750 $lly=3.0150 $urx=0.4750 $ury=3.0150 $lvl=3
*|I (Mmp0@1:g Mmp0@1 g X 0 0.9050 3.0150) // $llx=0.9050 $lly=3.0150 $urx=0.9050 $ury=3.0150 $lvl=3
*|I (Mmn0:g Mmn0 g X 0 0.4750 0.7750) // $llx=0.4750 $lly=0.7750 $urx=0.4750 $ury=0.7750 $lvl=3
*|I (Mmn0@1:g Mmn0@1 g X 0 0.9050 0.7750) // $llx=0.9050 $lly=0.7750 $urx=0.9050 $ury=0.7750 $lvl=3
*|S (A0:15 0.9050 3.8950) // $llx=0.9050 $lly=3.8950 $urx=0.9050 $ury=3.8950 $lvl=3
*|S (A0:16 0.9050 1.6950) // $llx=0.9050 $lly=1.6950 $urx=0.9050 $ury=1.6950 $lvl=3
*|S (A0:17 0.6900 1.6950) // $llx=0.6900 $lly=1.6950 $urx=0.6900 $ury=1.6950 $lvl=3
*|S (A0:18 0.4750 1.6950) // $llx=0.4750 $lly=1.6950 $urx=0.4750 $ury=1.6950 $lvl=3
*|S (A0:19 0.4650 1.5300) // $llx=0.4650 $lly=1.5300 $urx=0.4650 $ury=1.5300 $lvl=3
*|S (A0:20 0.9150 1.5300) // $llx=0.9150 $lly=1.5300 $urx=0.9150 $ury=1.5300 $lvl=3
*|S (A0:21 0.9050 0.2450) // $llx=0.9050 $lly=0.2450 $urx=0.9050 $ury=0.2450 $lvl=3
*|S (A0:22 0.4650 1.8595) // $llx=0.4650 $lly=1.8595 $urx=0.4650 $ury=1.8595 $lvl=3
*|S (A0:23 0.4750 3.8950) // $llx=0.4750 $lly=3.8950 $urx=0.4750 $ury=3.8950 $lvl=3
*|S (A0:24 0.4750 0.2450) // $llx=0.4750 $lly=0.2450 $urx=0.4750 $ury=0.2450 $lvl=3
*|S (A0:25 0.6900 1.6950) // $llx=0.6900 $lly=1.6950 $urx=0.6900 $ury=1.6950 $lvl=2
*|S (A0:26 0.4600 1.6950) // $llx=0.4600 $lly=1.6950 $urx=0.4600 $ury=1.6950 $lvl=2
*|S (A0:27 0.4600 2.1000) // $llx=0.4600 $lly=2.1000 $urx=0.4600 $ury=2.1000 $lvl=1
*|S (A0:28 0.4600 1.6950) // $llx=0.4600 $lly=1.6950 $urx=0.4600 $ury=1.6950 $lvl=1
*|S (A0:29 0.4600 0.8600) // $llx=0.4600 $lly=0.8600 $urx=0.4600 $ury=0.8600 $lvl=1
CA1 Mmn0@1:g VSS! 2.01995e-18 $lvl=3
CA2 Mmn0:g VSS! 2.05628e-18 $lvl=3
CA3 A0:15 VSS! 4.46618e-18 $lvl=3
CA4 A0:23 VSS! 2.9537e-18 $lvl=3
CA5 A0:27 VSS! 1.15993e-17 $lvl=1
CA6 A0:25 VSS! 7.66094e-18 $lvl=2
CA7 A0:26 VSS! 7.85538e-18 $lvl=2
CA8 A0:17 VSS! 3.44219e-17 $lvl=3
CA9 A0 VSS! 1.34197e-17 $lvl=1
CA10 A0 n1:12 3.12322e-18 $lvl1=1 $lvl2=1
CA11 A0:17 n1:4 3.08253e-18 $lvl1=3 $lvl2=2
CA12 A0:27 n1:4 3.06513e-18 $lvl1=1 $lvl2=2
CA13 A0:17 n1:5 2.57819e-18 $lvl1=3 $lvl2=2
CA14 A0:25 n1:4 2.12823e-18 $lvl1=2 $lvl2=2
CA15 A0:25 n1:5 2.05158e-18 $lvl1=2 $lvl2=2
CA16 A0:27 n1:5 1.94994e-18 $lvl1=1 $lvl2=2
CA17 A0 n1:11 1.60728e-18 $lvl1=1 $lvl2=1
CA18 A0:26 n1:5 1.04655e-18 $lvl1=2 $lvl2=2
CA19 A0:26 n1:4 9.61949e-19 $lvl1=2 $lvl2=2
CA20 A0:15 n1:4 2.50518e-16 $lvl1=3 $lvl2=2
CA21 A0:27 n1:12 1.06129e-17 $lvl1=1 $lvl2=1
CA22 A0:27 n1:11 1.41482e-17 $lvl1=1 $lvl2=1
CA23 A0:23 n1:4 2.5654e-16 $lvl1=3 $lvl2=2
CA24 A0:17 n0 5.27432e-18 $lvl1=3 $lvl2=2
CA25 A0:25 n0 4.08727e-18 $lvl1=2 $lvl2=2
CA26 A0:17 n0:5 3.67401e-18 $lvl1=3 $lvl2=2
CA27 A0 n0:4 3.54719e-18 $lvl1=1 $lvl2=2
CA28 A0 n0:5 3.42881e-18 $lvl1=1 $lvl2=2
CA29 A0:25 n0:5 3.37244e-18 $lvl1=2 $lvl2=2
CA30 A0:26 n0 2.82068e-18 $lvl1=2 $lvl2=2
CA31 A0:17 Mmn0:d 1.01454e-18 $lvl1=3 $lvl2=4
CA32 A0 n0:29 4.49781e-17 $lvl1=1 $lvl2=1
CA33 Mmn0@1:g n0:5 1.29196e-16 $lvl1=3 $lvl2=2
CA34 A0 n0:28 1.53132e-17 $lvl1=1 $lvl2=1
CA35 A0 n0 1.75834e-17 $lvl1=1 $lvl2=2
CA36 Mmn0:g n0 1.29267e-16 $lvl1=3 $lvl2=2
CA37 Mmn0@1:g VSS!:8 8.57137e-18 $lvl1=3 $lvl2=2
CA38 Mmn0:g VSS!:8 7.51497e-18 $lvl1=3 $lvl2=2
CA39 A0:17 VSS!:12 6.76028e-18 $lvl1=3 $lvl2=2
CA40 A0:25 VSS!:12 4.44258e-18 $lvl1=2 $lvl2=2
CA41 A0 VSS!:15 4.25209e-18 $lvl1=1 $lvl2=1
CA42 A0 VSS!:16 2.54123e-18 $lvl1=1 $lvl2=1
CA43 Mmn0@1:g VSS!:12 1.2801e-16 $lvl1=3 $lvl2=2
CA44 A0 VSS!:12 1.36166e-17 $lvl1=1 $lvl2=2
CA45 Mmn0:g VSS!:12 1.28489e-16 $lvl1=3 $lvl2=2
CA46 A0:27 VDD!:1 7.93917e-18 $lvl1=1 $lvl2=2
CA47 A0:17 VDD! 7.89635e-18 $lvl1=3 $lvl2=1
CA48 A0:15 VDD!:5 7.0227e-18 $lvl1=3 $lvl2=2
CA49 A0:23 VDD!:4 6.24568e-18 $lvl1=3 $lvl2=2
CA50 A0:17 VDD!:1 4.94057e-18 $lvl1=3 $lvl2=2
CA51 A0:25 VDD! 4.13403e-18 $lvl1=2 $lvl2=1
CA52 A0:25 VDD!:1 3.726e-18 $lvl1=2 $lvl2=2
CA53 A0:17 VDD!:12 3.35287e-18 $lvl1=3 $lvl2=2
CA54 A0:25 VDD!:12 3.05616e-18 $lvl1=2 $lvl2=2
CA55 A0 VDD!:1 2.91563e-18 $lvl1=1 $lvl2=2
CA56 A0:26 VDD!:1 2.76992e-18 $lvl1=2 $lvl2=2
CA57 A0:26 VDD! 2.67641e-18 $lvl1=2 $lvl2=1
CA58 A0:15 VDD!:4 1.4882e-18 $lvl1=3 $lvl2=2
CA59 A0 VDD!:18 1.25956e-18 $lvl1=1 $lvl2=1
CA60 A0:27 VDD!:12 1.18377e-18 $lvl1=1 $lvl2=2
CA61 A0:23 VDD!:5 1.16519e-18 $lvl1=3 $lvl2=2
CA62 A0:27 VDD! 1.04944e-17 $lvl1=1 $lvl2=1
CA63 A0:23 VDD!:1 2.56184e-16 $lvl1=3 $lvl2=2
CA64 A0 VDD! 2.51236e-17 $lvl1=1 $lvl2=1
CA65 A0:15 VDD!:12 2.53938e-16 $lvl1=3 $lvl2=2
CA66 A0 Y:28 3.40575e-18 $lvl1=1 $lvl2=1
CA67 A0:25 B0:25 9.88011e-18 $lvl1=2 $lvl2=2
CA68 A0 B0:27 9.0337e-18 $lvl1=1 $lvl2=1
CA69 A0 B0:29 8.89431e-18 $lvl1=1 $lvl2=1
CA70 A0:27 B0:27 6.9692e-18 $lvl1=1 $lvl2=1
CA71 A0:25 B0:26 4.99089e-18 $lvl1=2 $lvl2=2
CA72 A0:25 B0:27 4.86354e-18 $lvl1=2 $lvl2=1
CA73 A0:25 B0:17 3.2185e-18 $lvl1=2 $lvl2=3
CA74 A0:17 B0:25 2.68877e-18 $lvl1=3 $lvl2=2
CA75 A0:25 B0:29 2.11939e-18 $lvl1=2 $lvl2=1
CA76 A0:17 B0:27 1.18096e-18 $lvl1=3 $lvl2=1
CA77 A0:27 B0:29 1.15859e-18 $lvl1=1 $lvl2=1
CA78 Mmn0@1:g B0:17 1.09952e-18 $lvl1=3 $lvl2=3
CA79 A0:17 Mmn2:g 1.04257e-18 $lvl1=3 $lvl2=3
CA80 A0 B0:26 1.0415e-18 $lvl1=1 $lvl2=2
CA81 A0:17 B0:17 1.05423e-17 $lvl1=3 $lvl2=3
ReA1 A0:27 A0:28 0.194712 $metal1  $L=0.405 $W=0.260000 $SI_W=0.26 $TYPE=10 $DIR=1 $LLX=0.330000 $LLY=1.695000 $URX=0.590000 $URY=2.100000 $lvl=1
ReA2 A0:28 A0 0.115385 $metal1  $L=0.24 $W=0.260000 $SI_W=0.26 $TYPE=10 $DIR=1 $LLX=0.330000 $LLY=1.455000 $URX=0.590000 $URY=1.695000 $lvl=1
ReA3 A0 A0:29 0.286058 $metal1  $L=0.595 $W=0.260000 $SI_W=0.26 $TYPE=10 $DIR=1 $LLX=0.345000 $LLY=0.860000 $URX=0.605000 $URY=1.455000 $lvl=1
RfA4 A0:25 A0:26 17.317646 $li  $L=0.23 $W=0.170000 $SI_W=0.17 $TYPE=10 $DIR=0 $LLX=0.460000 $LLY=1.610000 $URX=0.690000 $URY=1.780000 $lvl=2
RgA5 A0:15 Mmp0@1:g 282.773346 $poly  $L=0.88 $W=0.150000 $SI_W=0.15 $TYPE=10 $DIR=1 $LLX=0.830000 $LLY=3.015000 $URX=0.980000 $URY=3.895000 $lvl=3
RgA6 Mmp0@1:g A0:16 418.638855 $poly  $L=1.31975 $W=0.150000 $SI_W=0.15 $TYPE=10 $DIR=1 $LLX=0.830000 $LLY=1.695000 $URX=0.980000 $URY=3.015000 $lvl=3
RgA7 A0:16 A0:17 31.439547 $poly  $L=0.21525 $W=0.330000 $SI_W=0.33 $TYPE=10 $DIR=0 $LLX=0.690000 $LLY=1.530000 $URX=0.905000 $URY=1.860000 $lvl=3
RgA8 A0:17 A0:18 31.366514 $poly  $L=0.21475 $W=0.330000 $SI_W=0.33 $TYPE=10 $DIR=0 $LLX=0.475000 $LLY=1.530000 $URX=0.690000 $URY=1.860000 $lvl=3
RgA9 A0:18 A0:19 46.784668 $poly  $L=0.16475 $W=0.170000 $SI_W=0.17 $TYPE=10 $DIR=1 $LLX=0.380000 $LLY=1.530000 $URX=0.550000 $URY=1.695000 $lvl=3
RgA10 A0:19 Mmn0:g 242.677551 $poly  $L=0.755 $W=0.150000 $SI_W=0.15 $TYPE=10 $DIR=1 $LLX=0.400000 $LLY=0.775000 $URX=0.550000 $URY=1.530000 $lvl=3
RgA11 A0:16 A0:20 46.784668 $poly  $L=0.16475 $W=0.170000 $SI_W=0.17 $TYPE=10 $DIR=1 $LLX=0.830000 $LLY=1.530000 $URX=1.000000 $URY=1.695000 $lvl=3
RgA12 A0:20 Mmn0@1:g 242.677551 $poly  $L=0.755 $W=0.150000 $SI_W=0.15 $TYPE=10 $DIR=1 $LLX=0.830000 $LLY=0.775000 $URX=0.980000 $URY=1.530000 $lvl=3
RgA13 Mmn0@1:g A0:21 170.306671 $poly  $L=0.53 $W=0.150000 $SI_W=0.15 $TYPE=10 $DIR=1 $LLX=0.830000 $LLY=0.245000 $URX=0.980000 $URY=0.775000 $lvl=3
RgA14 A0:18 A0:22 46.642902 $poly  $L=0.16425 $W=0.170000 $SI_W=0.17 $TYPE=10 $DIR=1 $LLX=0.380000 $LLY=1.695500 $URX=0.550000 $URY=1.859500 $lvl=3
RgA15 A0:22 Mmp0:g 371.210876 $poly  $L=1.155 $W=0.150000 $SI_W=0.15 $TYPE=10 $DIR=1 $LLX=0.400000 $LLY=1.859500 $URX=0.550000 $URY=3.014500 $lvl=3
RgA16 Mmp0:g A0:23 282.773346 $poly  $L=0.88 $W=0.150000 $SI_W=0.15 $TYPE=10 $DIR=1 $LLX=0.400000 $LLY=3.015000 $URX=0.550000 $URY=3.895000 $lvl=3
RgA17 Mmn0:g A0:24 170.306671 $poly  $L=0.53 $W=0.150000 $SI_W=0.15 $TYPE=10 $DIR=1 $LLX=0.400000 $LLY=0.245000 $URX=0.550000 $URY=0.775000 $lvl=3
RjA18 A0:26 A0:28 152.000000 $mcon  $L=0.17 $W=0.17 $A=0.0289 $VC=0 $SAVL=0 $SAVC=0 $SI_A=0.0289 $COVER_DIR=0 $LLX=0.000000 $LLY=0.000000 $URX=0.170000 $URY=0.170000 $lvl=6
RiA19 A0:17 A0:25 7.500000 $licon  $A=0.0578 $VC=0 $SAVL=0 $SAVC=0 $SI_A=0.0578 $COVER_DIR=0 $LLX=0.000000 $LLY=0.000000 $URX=-0.057800 $URY=-2.000000 $lvl=7
*
*|NET A1 2.08257e-15
*|P (A1 X 0 2.7750 1.8700) // $llx=2.7750 $lly=1.8700 $urx=2.7750 $ury=1.8700 $lvl=1
*|I (Mmp1:g Mmp1 g X 0 2.7150 3.0150) // $llx=2.7150 $lly=3.0150 $urx=2.7150 $ury=3.0150 $lvl=3
*|I (Mmp1@1:g Mmp1@1 g X 0 3.1450 3.0150) // $llx=3.1450 $lly=3.0150 $urx=3.1450 $ury=3.0150 $lvl=3
*|I (Mmn1:g Mmn1 g X 0 2.7150 0.7750) // $llx=2.7150 $lly=0.7750 $urx=2.7150 $ury=0.7750 $lvl=3
*|I (Mmn1@1:g Mmn1@1 g X 0 3.1450 0.7750) // $llx=3.1450 $lly=0.7750 $urx=3.1450 $ury=0.7750 $lvl=3
*|S (A1:15 3.1450 3.8950) // $llx=3.1450 $lly=3.8950 $urx=3.1450 $ury=3.8950 $lvl=3
*|S (A1:16 3.1450 1.6950) // $llx=3.1450 $lly=1.6950 $urx=3.1450 $ury=1.6950 $lvl=3
*|S (A1:17 2.9300 1.6950) // $llx=2.9300 $lly=1.6950 $urx=2.9300 $ury=1.6950 $lvl=3
*|S (A1:18 2.7150 1.6950) // $llx=2.7150 $lly=1.6950 $urx=2.7150 $ury=1.6950 $lvl=3
*|S (A1:19 2.7050 1.5300) // $llx=2.7050 $lly=1.5300 $urx=2.7050 $ury=1.5300 $lvl=3
*|S (A1:20 3.1550 1.5300) // $llx=3.1550 $lly=1.5300 $urx=3.1550 $ury=1.5300 $lvl=3
*|S (A1:21 3.1450 0.2450) // $llx=3.1450 $lly=0.2450 $urx=3.1450 $ury=0.2450 $lvl=3
*|S (A1:22 2.7050 1.8595) // $llx=2.7050 $lly=1.8595 $urx=2.7050 $ury=1.8595 $lvl=3
*|S (A1:23 2.7150 3.8950) // $llx=2.7150 $lly=3.8950 $urx=2.7150 $ury=3.8950 $lvl=3
*|S (A1:24 2.7150 0.2450) // $llx=2.7150 $lly=0.2450 $urx=2.7150 $ury=0.2450 $lvl=3
*|S (A1:25 2.9300 1.6950) // $llx=2.9300 $lly=1.6950 $urx=2.9300 $ury=1.6950 $lvl=2
*|S (A1:26 2.7600 1.6950) // $llx=2.7600 $lly=1.6950 $urx=2.7600 $ury=1.6950 $lvl=2
*|S (A1:27 2.7600 2.5150) // $llx=2.7600 $lly=2.5150 $urx=2.7600 $ury=2.5150 $lvl=1
*|S (A1:28 2.7600 1.6950) // $llx=2.7600 $lly=1.6950 $urx=2.7600 $ury=1.6950 $lvl=1
*|S (A1:29 2.7600 1.2750) // $llx=2.7600 $lly=1.2750 $urx=2.7600 $ury=1.2750 $lvl=1
CB1 Mmn1@1:g VSS! 1.92973e-18 $lvl=3
CB2 Mmn1:g VSS! 1.42733e-18 $lvl=3
CB3 Mmp1:g VSS! 5.10557e-18 $lvl=3
CB4 A1:15 VSS! 2.87842e-18 $lvl=3
CB5 A1:27 VSS! 1.45603e-17 $lvl=1
CB6 A1:29 VSS! 8.44749e-18 $lvl=1
CB7 A1:25 VSS! 8.92899e-18 $lvl=2
CB8 A1:26 VSS! 1.07606e-17 $lvl=2
CB9 A1:17 VSS! 3.24172e-17 $lvl=3
CB10 A1:27 n1:6 5.43979e-18 $lvl1=1 $lvl2=2
CB11 A1:27 n1:10 5.34063e-18 $lvl1=1 $lvl2=2
CB12 A1:17 n1:10 2.79874e-18 $lvl1=3 $lvl2=2
CB13 A1:17 n1:6 2.55321e-18 $lvl1=3 $lvl2=2
CB14 A1:25 n1:10 2.28643e-18 $lvl1=2 $lvl2=2
CB15 Mmp1:g n1:6 2.54356e-16 $lvl1=3 $lvl2=2
CB16 A1:15 n1:6 2.53605e-16 $lvl1=3 $lvl2=2
CB17 A1:17 n0:17 5.62309e-18 $lvl1=3 $lvl2=2
CB18 A1:17 n0:16 4.82148e-18 $lvl1=3 $lvl2=2
CB19 A1:25 n0:17 4.32065e-18 $lvl1=2 $lvl2=2
CB20 A1:29 n0:16 2.82962e-18 $lvl1=1 $lvl2=2
CB21 A1:25 n0:16 2.82545e-18 $lvl1=2 $lvl2=2
CB22 A1:26 n0:16 2.20375e-18 $lvl1=2 $lvl2=2
CB23 A1:17 n0:9 1.39451e-18 $lvl1=3 $lvl2=2
CB24 A1:17 Mmn1@1:d 1.12251e-18 $lvl1=3 $lvl2=4
CB25 Mmn1:g n0:9 1.05204e-18 $lvl1=3 $lvl2=2
CB26 A1:25 n0:9 9.44862e-19 $lvl1=2 $lvl2=2
CB27 A1:17 Mmn1:d 8.68088e-19 $lvl1=3 $lvl2=4
CB28 Mmn1@1:g n0:16 7.80872e-19 $lvl1=3 $lvl2=2
CB29 Mmn1:g n0:17 7.60685e-19 $lvl1=3 $lvl2=2
CB30 A1:27 n0:22 7.30593e-19 $lvl1=1 $lvl2=1
CB31 Mmn1@1:g n0:17 1.30953e-16 $lvl1=3 $lvl2=2
CB32 Mmn1:g n0:16 1.28198e-16 $lvl1=3 $lvl2=2
CB33 Mmn1:g VSS!:8 8.66168e-18 $lvl1=3 $lvl2=2
CB34 Mmn1@1:g VSS!:8 8.36316e-18 $lvl1=3 $lvl2=2
CB35 A1:17 VSS!:1 6.32093e-18 $lvl1=3 $lvl2=2
CB36 A1:25 VSS!:1 3.83784e-18 $lvl1=2 $lvl2=2
CB37 A1:29 VSS!:1 2.95735e-18 $lvl1=1 $lvl2=2
CB38 Mmn1:g VSS!:1 1.30398e-16 $lvl1=3 $lvl2=2
CB39 Mmn1@1:g VSS!:1 1.30325e-16 $lvl1=3 $lvl2=2
CB40 A1:27 VDD! 9.45497e-18 $lvl1=1 $lvl2=1
CB41 A1:17 VDD! 8.1744e-18 $lvl1=3 $lvl2=1
CB42 Mmp1:g VDD!:5 7.94681e-18 $lvl1=3 $lvl2=2
CB43 A1:15 VDD!:16 6.20512e-18 $lvl1=3 $lvl2=2
CB44 A1:25 VDD! 3.61864e-18 $lvl1=2 $lvl2=1
CB45 A1:27 VDD!:15 3.54932e-18 $lvl1=1 $lvl2=2
CB46 A1:29 VDD! 3.10713e-18 $lvl1=1 $lvl2=1
CB47 A1:15 VDD!:5 1.70955e-18 $lvl1=3 $lvl2=2
CB48 A1:27 VDD!:18 1.54182e-18 $lvl1=1 $lvl2=1
CB49 A1:27 Y:27 8.2953e-18 $lvl1=1 $lvl2=1
CB50 A1:29 Y 8.11606e-18 $lvl1=1 $lvl2=1
CB51 A1:29 Y:28 6.4351e-18 $lvl1=1 $lvl2=1
CB52 A1:27 Y:15 6.32128e-18 $lvl1=1 $lvl2=2
CB53 A1:27 Y:14 6.13186e-18 $lvl1=1 $lvl2=2
CB54 A1:25 Y:27 6.00553e-18 $lvl1=2 $lvl2=1
CB55 A1:27 Y:28 5.22605e-18 $lvl1=1 $lvl2=1
CB56 A1:26 Y 3.81155e-18 $lvl1=2 $lvl2=1
CB57 A1:27 Y:30 3.37323e-18 $lvl1=1 $lvl2=1
CB58 A1:17 Y 3.13715e-18 $lvl1=3 $lvl2=1
CB59 A1:17 Y:16 2.97393e-18 $lvl1=3 $lvl2=2
CB60 A1:17 Y:27 2.8563e-18 $lvl1=3 $lvl2=1
CB61 A1:26 Y:27 2.60172e-18 $lvl1=2 $lvl2=1
CB62 A1:17 Y:15 2.3366e-18 $lvl1=3 $lvl2=2
CB63 A1:17 Y:14 2.21142e-18 $lvl1=3 $lvl2=2
CB64 A1:25 Y:20 2.09562e-18 $lvl1=2 $lvl2=2
CB65 A1:17 Y:20 1.96348e-18 $lvl1=3 $lvl2=2
CB66 A1:25 Y:15 1.5893e-18 $lvl1=2 $lvl2=2
CB67 A1:25 Y:16 1.37582e-18 $lvl1=2 $lvl2=2
CB68 A1:25 Y:23 1.319e-18 $lvl1=2 $lvl2=1
CB69 A1:26 Y:15 1.3048e-18 $lvl1=2 $lvl2=2
CB70 A1:15 Y:20 9.87443e-19 $lvl1=3 $lvl2=2
CB71 A1:29 Y:23 9.81227e-19 $lvl1=1 $lvl2=1
CB72 A1:17 Y:23 9.63382e-19 $lvl1=3 $lvl2=1
CB73 A1:27 Y:16 9.49903e-19 $lvl1=1 $lvl2=2
CB74 Mmp1:g Y:15 9.42671e-19 $lvl1=3 $lvl2=2
CB75 A1:25 Y:28 8.85803e-19 $lvl1=2 $lvl2=1
CB76 A1:26 Y:28 8.53352e-19 $lvl1=2 $lvl2=1
CB77 A1:25 Y:14 7.95845e-19 $lvl1=2 $lvl2=2
CB78 A1:27 Y:21 7.61285e-19 $lvl1=1 $lvl2=1
CB79 Mmp1:g Y:16 7.48593e-19 $lvl1=3 $lvl2=2
CB80 A1:17 Mmp1:d 7.36098e-19 $lvl1=3 $lvl2=4
CB81 A1:17 Mmp1@1:d 7.34137e-19 $lvl1=3 $lvl2=4
CB82 A1:17 Y:28 7.23427e-19 $lvl1=3 $lvl2=1
CB83 A1:27 Y:19 7.16578e-19 $lvl1=1 $lvl2=2
CB84 A1:27 Y:20 6.76288e-19 $lvl1=1 $lvl2=2
CB85 A1:27 Y 5.55281e-17 $lvl1=1 $lvl2=1
CB86 A1:29 Y:27 7.20121e-17 $lvl1=1 $lvl2=1
CB87 A1:27 Y:23 8.94069e-17 $lvl1=1 $lvl2=1
CB88 A1:25 Y 1.2862e-17 $lvl1=2 $lvl2=1
CB89 Mmp1:g Y:14 2.55028e-16 $lvl1=3 $lvl2=2
CB90 A1:15 Y:16 2.54501e-16 $lvl1=3 $lvl2=2
CB91 A1:27 B0:27 5.57358e-18 $lvl1=1 $lvl2=1
CB92 A1:27 B0:25 1.98207e-18 $lvl1=1 $lvl2=2
CB93 A1:17 B0:17 1.86302e-18 $lvl1=3 $lvl2=3
CB94 A1:27 B0:29 1.31082e-18 $lvl1=1 $lvl2=1
CB95 A1:29 B0:27 1.1783e-18 $lvl1=1 $lvl2=1
CB96 A1:17 B0:25 9.52237e-19 $lvl1=3 $lvl2=2
ReB20 A1:27 A1 0.310096 $metal1  $L=0.645 $W=0.260000 $SI_W=0.26 $TYPE=10 $DIR=1 $LLX=2.630000 $LLY=1.870000 $URX=2.890000 $URY=2.515000 $lvl=1
ReB21 A1 A1:28 0.084135 $metal1  $L=0.175 $W=0.260000 $SI_W=0.26 $TYPE=10 $DIR=1 $LLX=2.645000 $LLY=1.695000 $URX=2.905000 $URY=1.870000 $lvl=1
ReB22 A1:28 A1:29 0.201923 $metal1  $L=0.42 $W=0.260000 $SI_W=0.26 $TYPE=10 $DIR=1 $LLX=2.630000 $LLY=1.275000 $URX=2.890000 $URY=1.695000 $lvl=1
RfB23 A1:25 A1:26 12.800000 $li  $L=0.17 $W=0.170000 $SI_W=0.17 $TYPE=10 $DIR=0 $LLX=2.760000 $LLY=1.610000 $URX=2.930000 $URY=1.780000 $lvl=2
RgB24 A1:15 Mmp1@1:g 282.773346 $poly  $L=0.88 $W=0.150000 $SI_W=0.15 $TYPE=10 $DIR=1 $LLX=3.070000 $LLY=3.015000 $URX=3.220000 $URY=3.895000 $lvl=3
RgB25 Mmp1@1:g A1:16 418.638855 $poly  $L=1.31975 $W=0.150000 $SI_W=0.15 $TYPE=10 $DIR=1 $LLX=3.070000 $LLY=1.695000 $URX=3.220000 $URY=3.015000 $lvl=3
RgB26 A1:16 A1:17 31.439547 $poly  $L=0.21525 $W=0.330000 $SI_W=0.33 $TYPE=10 $DIR=0 $LLX=2.930000 $LLY=1.530000 $URX=3.145000 $URY=1.860000 $lvl=3
RgB27 A1:17 A1:18 31.366514 $poly  $L=0.21475 $W=0.330000 $SI_W=0.33 $TYPE=10 $DIR=0 $LLX=2.715000 $LLY=1.530000 $URX=2.930000 $URY=1.860000 $lvl=3
RgB28 A1:18 A1:19 46.784668 $poly  $L=0.16475 $W=0.170000 $SI_W=0.17 $TYPE=10 $DIR=1 $LLX=2.620000 $LLY=1.530000 $URX=2.790000 $URY=1.695000 $lvl=3
RgB29 A1:19 Mmn1:g 242.677551 $poly  $L=0.755 $W=0.150000 $SI_W=0.15 $TYPE=10 $DIR=1 $LLX=2.640000 $LLY=0.775000 $URX=2.790000 $URY=1.530000 $lvl=3
RgB30 A1:16 A1:20 46.784668 $poly  $L=0.16475 $W=0.170000 $SI_W=0.17 $TYPE=10 $DIR=1 $LLX=3.070000 $LLY=1.530000 $URX=3.240000 $URY=1.695000 $lvl=3
RgB31 A1:20 Mmn1@1:g 242.677551 $poly  $L=0.755 $W=0.150000 $SI_W=0.15 $TYPE=10 $DIR=1 $LLX=3.070000 $LLY=0.775000 $URX=3.220000 $URY=1.530000 $lvl=3
RgB32 Mmn1@1:g A1:21 170.306671 $poly  $L=0.53 $W=0.150000 $SI_W=0.15 $TYPE=10 $DIR=1 $LLX=3.070000 $LLY=0.245000 $URX=3.220000 $URY=0.775000 $lvl=3
RgB33 A1:18 A1:22 46.642902 $poly  $L=0.16425 $W=0.170000 $SI_W=0.17 $TYPE=10 $DIR=1 $LLX=2.620000 $LLY=1.695500 $URX=2.790000 $URY=1.859500 $lvl=3
RgB34 A1:22 Mmp1:g 371.210876 $poly  $L=1.155 $W=0.150000 $SI_W=0.15 $TYPE=10 $DIR=1 $LLX=2.640000 $LLY=1.859500 $URX=2.790000 $URY=3.014500 $lvl=3
RgB35 Mmp1:g A1:23 282.773346 $poly  $L=0.88 $W=0.150000 $SI_W=0.15 $TYPE=10 $DIR=1 $LLX=2.640000 $LLY=3.015000 $URX=2.790000 $URY=3.895000 $lvl=3
RgB36 Mmn1:g A1:24 170.306671 $poly  $L=0.53 $W=0.150000 $SI_W=0.15 $TYPE=10 $DIR=1 $LLX=2.640000 $LLY=0.245000 $URX=2.790000 $URY=0.775000 $lvl=3
RjB37 A1:26 A1:28 152.000000 $mcon  $L=0.17 $W=0.17 $A=0.0289 $VC=0 $SAVL=0 $SAVC=0 $SI_A=0.0289 $COVER_DIR=0 $LLX=0.000000 $LLY=0.000000 $URX=0.170000 $URY=0.170000 $lvl=6
RiB38 A1:17 A1:25 7.500000 $licon  $A=0.0578 $VC=0 $SAVL=0 $SAVC=0 $SI_A=0.0578 $COVER_DIR=0 $LLX=0.000000 $LLY=0.000000 $URX=-0.057800 $URY=-2.000000 $lvl=7
*
*|NET B0 1.99989e-15
*|P (B0 X 0 1.3950 1.8950) // $llx=1.3950 $lly=1.8950 $urx=1.3950 $ury=1.8950 $lvl=1
*|I (Mmp2:g Mmp2 g X 0 1.3350 3.0150) // $llx=1.3350 $lly=3.0150 $urx=1.3350 $ury=3.0150 $lvl=3
*|I (Mmp2@1:g Mmp2@1 g X 0 1.7650 3.0150) // $llx=1.7650 $lly=3.0150 $urx=1.7650 $ury=3.0150 $lvl=3
*|I (Mmn2:g Mmn2 g X 0 1.3350 0.7750) // $llx=1.3350 $lly=0.7750 $urx=1.3350 $ury=0.7750 $lvl=3
*|I (Mmn2@1:g Mmn2@1 g X 0 1.7650 0.7750) // $llx=1.7650 $lly=0.7750 $urx=1.7650 $ury=0.7750 $lvl=3
*|S (B0:15 1.7650 3.8950) // $llx=1.7650 $lly=3.8950 $urx=1.7650 $ury=3.8950 $lvl=3
*|S (B0:16 1.7650 1.6950) // $llx=1.7650 $lly=1.6950 $urx=1.7650 $ury=1.6950 $lvl=3
*|S (B0:17 1.5500 1.6950) // $llx=1.5500 $lly=1.6950 $urx=1.5500 $ury=1.6950 $lvl=3
*|S (B0:18 1.3350 1.6950) // $llx=1.3350 $lly=1.6950 $urx=1.3350 $ury=1.6950 $lvl=3
*|S (B0:19 1.3250 1.5300) // $llx=1.3250 $lly=1.5300 $urx=1.3250 $ury=1.5300 $lvl=3
*|S (B0:20 1.7750 1.5300) // $llx=1.7750 $lly=1.5300 $urx=1.7750 $ury=1.5300 $lvl=3
*|S (B0:21 1.7650 0.2450) // $llx=1.7650 $lly=0.2450 $urx=1.7650 $ury=0.2450 $lvl=3
*|S (B0:22 1.3250 1.8595) // $llx=1.3250 $lly=1.8595 $urx=1.3250 $ury=1.8595 $lvl=3
*|S (B0:23 1.3350 3.8950) // $llx=1.3350 $lly=3.8950 $urx=1.3350 $ury=3.8950 $lvl=3
*|S (B0:24 1.3350 0.2450) // $llx=1.3350 $lly=0.2450 $urx=1.3350 $ury=0.2450 $lvl=3
*|S (B0:25 1.5500 1.6950) // $llx=1.5500 $lly=1.6950 $urx=1.5500 $ury=1.6950 $lvl=2
*|S (B0:26 1.3800 1.6950) // $llx=1.3800 $lly=1.6950 $urx=1.3800 $ury=1.6950 $lvl=2
*|S (B0:27 1.3800 2.5150) // $llx=1.3800 $lly=2.5150 $urx=1.3800 $ury=2.5150 $lvl=1
*|S (B0:28 1.3800 1.6950) // $llx=1.3800 $lly=1.6950 $urx=1.3800 $ury=1.6950 $lvl=1
*|S (B0:29 1.3800 1.2750) // $llx=1.3800 $lly=1.2750 $urx=1.3800 $ury=1.2750 $lvl=1
CC1 Mmn2:g VSS! 2.53785e-18 $lvl=3
CC2 B0:15 VSS! 2.77421e-18 $lvl=3
CC3 B0:23 VSS! 4.00052e-18 $lvl=3
CC4 B0:21 VSS! 2.75893e-18 $lvl=3
CC5 B0:27 VSS! 1.68383e-17 $lvl=1
CC6 B0:29 VSS! 9.86159e-18 $lvl=1
CC7 B0:25 VSS! 1.01549e-17 $lvl=2
CC8 B0:26 VSS! 8.46185e-18 $lvl=2
CC9 B0:17 VSS! 3.44663e-17 $lvl=3
CC10 B0:27 n1:11 5.68146e-18 $lvl1=1 $lvl2=1
CC11 B0:27 n1:4 3.15134e-18 $lvl1=1 $lvl2=2
CC12 B0:27 n1:13 2.68048e-18 $lvl1=1 $lvl2=1
CC13 B0:27 n1:12 1.54804e-17 $lvl1=1 $lvl2=1
CC14 B0:29 n0:28 5.17061e-18 $lvl1=1 $lvl2=1
CC15 B0:17 n0:9 4.90218e-18 $lvl1=3 $lvl2=2
CC16 B0:29 n0:5 4.26337e-18 $lvl1=1 $lvl2=2
CC17 B0:25 n0:9 4.11912e-18 $lvl1=2 $lvl2=2
CC18 B0:17 n0:5 3.62242e-18 $lvl1=3 $lvl2=2
CC19 B0:25 n0:5 2.086e-18 $lvl1=2 $lvl2=2
CC20 B0:26 n0:5 1.84672e-18 $lvl1=2 $lvl2=2
CC21 B0:17 n0:16 1.59869e-18 $lvl1=3 $lvl2=2
CC22 B0:27 n0:28 1.55489e-18 $lvl1=1 $lvl2=1
CC23 B0:25 n0:16 1.31652e-18 $lvl1=2 $lvl2=2
CC24 B0:17 Mmn2@1:s 1.18543e-18 $lvl1=3 $lvl2=4
CC25 B0:29 n0:26 8.27174e-19 $lvl1=1 $lvl2=1
CC26 B0:29 n0:9 8.20123e-19 $lvl1=1 $lvl2=2
CC27 B0:29 n0:29 7.90435e-19 $lvl1=1 $lvl2=1
CC28 Mmn2:g n0:5 1.28064e-16 $lvl1=3 $lvl2=2
CC29 B0:21 n0:9 1.30684e-16 $lvl1=3 $lvl2=2
CC30 B0:21 VSS!:8 7.97715e-18 $lvl1=3 $lvl2=2
CC31 Mmn2:g VSS!:8 7.77471e-18 $lvl1=3 $lvl2=2
CC32 B0:15 VDD!:5 8.94074e-18 $lvl1=3 $lvl2=2
CC33 B0:23 VDD!:5 8.25851e-18 $lvl1=3 $lvl2=2
CC34 B0:27 VDD!:15 5.26836e-18 $lvl1=1 $lvl2=2
CC35 B0:17 VDD!:15 4.35808e-18 $lvl1=3 $lvl2=2
CC36 B0:25 VDD!:15 4.00336e-18 $lvl1=2 $lvl2=2
CC37 B0:29 VDD! 3.53165e-18 $lvl1=1 $lvl2=1
CC38 B0:17 VDD! 3.24064e-18 $lvl1=3 $lvl2=1
CC39 B0:17 VDD!:12 3.18629e-18 $lvl1=3 $lvl2=2
CC40 B0:27 VDD!:18 1.94144e-18 $lvl1=1 $lvl2=1
CC41 B0:25 VDD!:12 1.55405e-18 $lvl1=2 $lvl2=2
CC42 B0:15 VDD!:15 2.54134e-16 $lvl1=3 $lvl2=2
CC43 B0:27 VDD! 1.14307e-17 $lvl1=1 $lvl2=1
CC44 B0:23 VDD!:12 2.51261e-16 $lvl1=3 $lvl2=2
CC45 B0:27 VDD!:12 1.32423e-17 $lvl1=1 $lvl2=2
CC46 B0:27 Y:28 7.55721e-18 $lvl1=1 $lvl2=1
CC47 B0:27 Y:5 6.98879e-18 $lvl1=1 $lvl2=2
CC48 B0:27 Y:1 6.82053e-18 $lvl1=1 $lvl2=2
CC49 B0:17 Y:6 6.11351e-18 $lvl1=3 $lvl2=2
CC50 B0:27 Y:23 4.90499e-18 $lvl1=1 $lvl2=1
CC51 B0:25 Y:6 4.17811e-18 $lvl1=2 $lvl2=2
CC52 B0:29 Y:7 3.90334e-18 $lvl1=1 $lvl2=2
CC53 B0:25 Y:28 3.77381e-18 $lvl1=2 $lvl2=1
CC54 B0:17 Y:1 2.80801e-18 $lvl1=3 $lvl2=2
CC55 B0:17 Y:5 2.79697e-18 $lvl1=3 $lvl2=2
CC56 B0:27 Y:32 2.63194e-18 $lvl1=1 $lvl2=1
CC57 B0:25 Y:5 2.54107e-18 $lvl1=2 $lvl2=2
CC58 B0:29 Y:6 2.30793e-18 $lvl1=1 $lvl2=2
CC59 B0:26 Y:6 1.70025e-18 $lvl1=2 $lvl2=2
CC60 B0:27 Y:27 1.49349e-18 $lvl1=1 $lvl2=1
CC61 B0:17 Y:28 1.25845e-18 $lvl1=3 $lvl2=1
CC62 B0:26 Y:28 1.22643e-18 $lvl1=2 $lvl2=1
CC63 B0:26 Y:5 1.16742e-18 $lvl1=2 $lvl2=2
CC64 B0:17 Mmn2:d 1.10512e-18 $lvl1=3 $lvl2=4
CC65 B0:25 Y:1 1.08869e-18 $lvl1=2 $lvl2=2
CC66 B0:15 Y:14 1.08461e-18 $lvl1=3 $lvl2=2
CC67 B0:25 Y:7 1.0793e-18 $lvl1=2 $lvl2=2
CC68 B0:17 Mmp2:d 9.9254e-19 $lvl1=3 $lvl2=4
CC69 B0:17 Y:14 9.45075e-19 $lvl1=3 $lvl2=2
CC70 B0:23 Y:5 8.41947e-19 $lvl1=3 $lvl2=2
CC71 Mmn2:g Y:10 7.64043e-19 $lvl1=3 $lvl2=2
CC72 B0:27 Y:2 7.49968e-19 $lvl1=1 $lvl2=2
CC73 B0:25 Y:15 7.28847e-19 $lvl1=2 $lvl2=2
CC74 B0:17 Y:15 7.19562e-19 $lvl1=3 $lvl2=2
CC75 B0:26 Y:7 6.84384e-19 $lvl1=2 $lvl2=2
CC76 B0:25 Y:30 6.51042e-19 $lvl1=2 $lvl2=1
CC77 B0:15 Y:5 6.50641e-19 $lvl1=3 $lvl2=2
CC78 B0:21 Y:10 6.47947e-19 $lvl1=3 $lvl2=2
CC79 B0:17 Y:7 6.30264e-19 $lvl1=3 $lvl2=2
CC80 B0:29 Y:27 5.88116e-19 $lvl1=1 $lvl2=1
CC81 B0:27 Y:30 3.93074e-17 $lvl1=1 $lvl2=1
CC82 B0:23 Y:1 2.4738e-16 $lvl1=3 $lvl2=2
CC83 B0:29 Y:28 3.95622e-17 $lvl1=1 $lvl2=1
CC84 Mmn2:g Y:6 1.31201e-16 $lvl1=3 $lvl2=2
CC85 B0:21 Y:6 1.27853e-16 $lvl1=3 $lvl2=2
CC86 B0:15 Y:1 2.53077e-16 $lvl1=3 $lvl2=2
ReC39 B0:27 B0 0.298077 $metal1  $L=0.62 $W=0.260000 $SI_W=0.26 $TYPE=10 $DIR=1 $LLX=1.250000 $LLY=1.895000 $URX=1.510000 $URY=2.515000 $lvl=1
ReC40 B0 B0:28 0.096154 $metal1  $L=0.2 $W=0.260000 $SI_W=0.26 $TYPE=10 $DIR=1 $LLX=1.265000 $LLY=1.695000 $URX=1.525000 $URY=1.895000 $lvl=1
ReC41 B0:28 B0:29 0.201923 $metal1  $L=0.42 $W=0.260000 $SI_W=0.26 $TYPE=10 $DIR=1 $LLX=1.250000 $LLY=1.275000 $URX=1.510000 $URY=1.695000 $lvl=1
RfC42 B0:25 B0:26 12.800000 $li  $L=0.17 $W=0.170000 $SI_W=0.17 $TYPE=10 $DIR=0 $LLX=1.380000 $LLY=1.610000 $URX=1.550000 $URY=1.780000 $lvl=2
RgC43 B0:15 Mmp2@1:g 282.773346 $poly  $L=0.88 $W=0.150000 $SI_W=0.15 $TYPE=10 $DIR=1 $LLX=1.690000 $LLY=3.015000 $URX=1.840000 $URY=3.895000 $lvl=3
RgC44 Mmp2@1:g B0:16 418.638855 $poly  $L=1.31975 $W=0.150000 $SI_W=0.15 $TYPE=10 $DIR=1 $LLX=1.690000 $LLY=1.695000 $URX=1.840000 $URY=3.015000 $lvl=3
RgC45 B0:16 B0:17 31.439547 $poly  $L=0.21525 $W=0.330000 $SI_W=0.33 $TYPE=10 $DIR=0 $LLX=1.550000 $LLY=1.530000 $URX=1.765000 $URY=1.860000 $lvl=3
RgC46 B0:17 B0:18 31.366514 $poly  $L=0.21475 $W=0.330000 $SI_W=0.33 $TYPE=10 $DIR=0 $LLX=1.335000 $LLY=1.530000 $URX=1.550000 $URY=1.860000 $lvl=3
RgC47 B0:18 B0:19 46.784668 $poly  $L=0.16475 $W=0.170000 $SI_W=0.17 $TYPE=10 $DIR=1 $LLX=1.240000 $LLY=1.530000 $URX=1.410000 $URY=1.695000 $lvl=3
RgC48 B0:19 Mmn2:g 242.677551 $poly  $L=0.755 $W=0.150000 $SI_W=0.15 $TYPE=10 $DIR=1 $LLX=1.260000 $LLY=0.775000 $URX=1.410000 $URY=1.530000 $lvl=3
RgC49 B0:16 B0:20 46.784668 $poly  $L=0.16475 $W=0.170000 $SI_W=0.17 $TYPE=10 $DIR=1 $LLX=1.690000 $LLY=1.530000 $URX=1.860000 $URY=1.695000 $lvl=3
RgC50 B0:20 Mmn2@1:g 242.677551 $poly  $L=0.755 $W=0.150000 $SI_W=0.15 $TYPE=10 $DIR=1 $LLX=1.690000 $LLY=0.775000 $URX=1.840000 $URY=1.530000 $lvl=3
RgC51 Mmn2@1:g B0:21 170.306671 $poly  $L=0.53 $W=0.150000 $SI_W=0.15 $TYPE=10 $DIR=1 $LLX=1.690000 $LLY=0.245000 $URX=1.840000 $URY=0.775000 $lvl=3
RgC52 B0:18 B0:22 46.642902 $poly  $L=0.16425 $W=0.170000 $SI_W=0.17 $TYPE=10 $DIR=1 $LLX=1.240000 $LLY=1.695500 $URX=1.410000 $URY=1.859500 $lvl=3
RgC53 B0:22 Mmp2:g 371.210876 $poly  $L=1.155 $W=0.150000 $SI_W=0.15 $TYPE=10 $DIR=1 $LLX=1.260000 $LLY=1.859500 $URX=1.410000 $URY=3.014500 $lvl=3
RgC54 Mmp2:g B0:23 282.773346 $poly  $L=0.88 $W=0.150000 $SI_W=0.15 $TYPE=10 $DIR=1 $LLX=1.260000 $LLY=3.015000 $URX=1.410000 $URY=3.895000 $lvl=3
RgC55 Mmn2:g B0:24 170.306671 $poly  $L=0.53 $W=0.150000 $SI_W=0.15 $TYPE=10 $DIR=1 $LLX=1.260000 $LLY=0.245000 $URX=1.410000 $URY=0.775000 $lvl=3
RjC56 B0:26 B0:28 152.000000 $mcon  $L=0.17 $W=0.17 $A=0.0289 $VC=0 $SAVL=0 $SAVC=0 $SI_A=0.0289 $COVER_DIR=0 $LLX=0.000000 $LLY=0.000000 $URX=0.170000 $URY=0.170000 $lvl=6
RiC57 B0:17 B0:25 7.500000 $licon  $A=0.0578 $VC=0 $SAVL=0 $SAVC=0 $SI_A=0.0578 $COVER_DIR=0 $LLX=0.000000 $LLY=0.000000 $URX=-0.057800 $URY=-2.000000 $lvl=7
*
*|NET n1 2.34207e-15
*|I (Mmp0:d Mmp0 d X 0 0.5505 3.0150) // $llx=0.5505 $lly=3.0150 $urx=0.5505 $ury=3.0150 $lvl=4
*|I (Mmp0@1:d Mmp0@1 d X 0 0.8295 3.0150) // $llx=0.8295 $lly=3.0150 $urx=0.8295 $ury=3.0150 $lvl=4
*|I (Mmp1:s Mmp1 s X 0 2.7905 3.0150) // $llx=2.7905 $lly=3.0150 $urx=2.7905 $ury=3.0150 $lvl=4
*|I (Mmp1@1:s Mmp1@1 s X 0 3.0695 3.0150) // $llx=3.0695 $lly=3.0150 $urx=3.0695 $ury=3.0150 $lvl=4
*|S (n1 0.6900 3.7450) // $llx=0.6900 $lly=3.7450 $urx=0.6900 $ury=3.7450 $lvl=2
*|S (n1:3 0.6900 3.0150) // $llx=0.6900 $lly=3.0150 $urx=0.6900 $ury=3.0150 $lvl=2
*|S (n1:4 0.6900 2.8300) // $llx=0.6900 $lly=2.8300 $urx=0.6900 $ury=2.8300 $lvl=2
*|S (n1:5 0.6900 2.2850) // $llx=0.6900 $lly=2.2850 $urx=0.6900 $ury=2.2850 $lvl=2
*|S (n1:6 2.9300 3.7450) // $llx=2.9300 $lly=3.7450 $urx=2.9300 $ury=3.7450 $lvl=2
*|S (n1:7 2.9300 3.1900) // $llx=2.9300 $lly=3.1900 $urx=2.9300 $ury=3.1900 $lvl=2
*|S (n1:9 2.9300 3.0150) // $llx=2.9300 $lly=3.0150 $urx=2.9300 $ury=3.0150 $lvl=2
*|S (n1:10 2.9300 2.2850) // $llx=2.9300 $lly=2.2850 $urx=2.9300 $ury=2.2850 $lvl=2
*|S (n1:11 0.6900 2.3250) // $llx=0.6900 $lly=2.3250 $urx=0.6900 $ury=2.3250 $lvl=1
*|S (n1:12 0.6900 2.8300) // $llx=0.6900 $lly=2.8300 $urx=0.6900 $ury=2.8300 $lvl=1
*|S (n1:13 0.6900 3.4400) // $llx=0.6900 $lly=3.4400 $urx=0.6900 $ury=3.4400 $lvl=1
*|S (n1:14 2.9300 3.4400) // $llx=2.9300 $lly=3.4400 $urx=2.9300 $ury=3.4400 $lvl=1
*|S (n1:15 2.9300 3.1900) // $llx=2.9300 $lly=3.1900 $urx=2.9300 $ury=3.1900 $lvl=1
*|S (n1:16 2.9300 3.0450) // $llx=2.9300 $lly=3.0450 $urx=2.9300 $ury=3.0450 $lvl=1
CH1 Mmp1:s VSS! 2.31804e-18 $lvl=4
CH2 Mmp0:d VSS! 1.73444e-18 $lvl=4
CH3 n1:12 VSS! 1.00872e-17 $lvl=1
CH4 n1:11 VSS! 4.68246e-18 $lvl=1
CH5 n1:16 VSS! 3.50262e-18 $lvl=1
CH6 n1:14 VSS! 7.39525e-18 $lvl=1
CH7 n1:13 VSS! 7.53265e-18 $lvl=1
CH8 n1:6 VSS! 6.71624e-18 $lvl=2
CH9 n1:10 VSS! 5.28879e-18 $lvl=2
CH10 n1:5 VSS! 5.57598e-18 $lvl=2
CH11 n1:4 VSS! 6.34076e-18 $lvl=2
CH12 n1:7 VSS! 1.00923e-18 $lvl=2
ReH170 n1:11 n1:12 0.274457 $metal1  $L=0.505 $W=0.230000 $SI_W=0.23 $TYPE=10 $DIR=1 $LLX=0.575000 $LLY=2.325000 $URX=0.805000 $URY=2.830000 $lvl=1
ReH171 n1:12 n1:13 0.331658 $metal1  $L=0.61025 $W=0.230000 $SI_W=0.23 $TYPE=10 $DIR=1 $LLX=0.575000 $LLY=2.830000 $URX=0.805000 $URY=3.440000 $lvl=1
ReH172 n1:13 n1:14 1.217391 $metal1  $L=2.24 $W=0.230000 $SI_W=0.23 $TYPE=10 $DIR=0 $LLX=0.690000 $LLY=3.325000 $URX=2.930000 $URY=3.555000 $lvl=1
ReH173 n1:14 n1:15 0.136005 $metal1  $L=0.25025 $W=0.230000 $SI_W=0.23 $TYPE=10 $DIR=1 $LLX=2.815000 $LLY=3.190000 $URX=3.045000 $URY=3.440000 $lvl=1
ReH174 n1:15 n1:16 0.078804 $metal1  $L=0.145 $W=0.230000 $SI_W=0.23 $TYPE=10 $DIR=1 $LLX=2.815000 $LLY=3.045000 $URX=3.045000 $URY=3.190000 $lvl=1
RfH175 n1 n1:3 54.964703 $li  $L=0.73 $W=0.170000 $SI_W=0.17 $TYPE=10 $DIR=1 $LLX=0.605000 $LLY=3.015000 $URX=0.775000 $URY=3.745000 $lvl=2