*
*|DSPF 1.5
*
*|DATE "Wed Jan  8 20:04:28 2025"
*|VENDOR "Cadence Design Systems"
*|PROGRAM "Cadence Quantus Extraction"
*|VERSION "22.1.0-p089 Linux 64 bit - (Thu Jan 19 11:47:08 PST 2023)"
*|DESIGN OAI222X1_HS
*|DIVIDER /
*|DELIMITER :
*|DeviceFingerDelim "@"
*|BUSBIT []
*|GLOBAL_TEMPERATURE 25
*|OPERATING_TEMPERATURE 25

** *VIA_COVERAGE_CODES
** *index FF FS FP FU SF SS SP SU PF PS PP PU UF US UP UU X_by_Y
** * "FF" stands for Full landing and Full coverage
** *0 0 0 0 0 0 0 0 0 0 0 0 0 0 0 0 0
** *1 0 0 0 0 0 0 0 0 0 0 0 0 0 0 0 1 1x1
** *2 0 0 0 0 0 0 0 0 0 0 0 0 0 0 1 0 1x1
** *3 0 0 0 0 0 0 0 0 0 0 0 0 0 1 0 0 1x1
** *4 0 0 0 0 0 0 0 0 0 0 0 0 1 0 0 0 1x1
** *5 0 0 0 0 0 0 0 0 0 0 0 1 0 0 0 0 1x1
** *6 0 0 0 0 0 0 0 0 0 0 1 0 0 0 0 0 1x1
** *7 0 0 0 0 0 0 0 0 0 1 0 0 0 0 0 0 1x1
** *8 0 0 0 0 0 0 0 0 1 0 0 0 0 0 0 0 1x1
** *9 0 0 0 0 0 0 0 1 0 0 0 0 0 0 0 0 1x1
** *10 0 0 0 0 0 0 1 0 0 0 0 0 0 0 0 0 1x1
** *11 0 0 0 0 0 1 0 0 0 0 0 0 0 0 0 0 1x1
** *12 0 0 0 0 1 0 0 0 0 0 0 0 0 0 0 0 1x1
** *13 0 0 0 1 0 0 0 0 0 0 0 0 0 0 0 0 1x1
** *14 0 0 1 0 0 0 0 0 0 0 0 0 0 0 0 0 1x1
** *15 0 1 0 0 0 0 0 0 0 0 0 0 0 0 0 0 1x1
** *16 1 0 0 0 0 0 0 0 0 0 0 0 0 0 0 0 1x1

** *RESISTOR_TYPES
** *1 SHORTING_ELEMENT
** *2 PRES_NG
** *3 PRES_PG
** *4 PRES_NF
** *5 PRES_PF
** *6 TCN_NDIFF
** *7 TCN_PDIFF
** *8 TCN_NFIELD
** *9 TCN_PFIELD
** *10 QUALITY_EXTRACTED
** *11 GCNLAND
** *12 TCNLAND
** *13 DUMMY
** *14 RSD
** *15 BRIDGE

** *RESISTOR_CURRENT_DIRECTION
** *0 HORIZONTAL
** *1 VERTICAL
** *2 45 DEGREE

** QRC_TECH_DIR /vols/wfo_devel/projects/reference_SKY130/tech/sky130_release_0.0.4/quantus/extraction/typical 
** HIERARCHICAL_SPLIT_PINS_DELIMITER '%'
** caps2d version: 10
*
.SUBCKT  OAI222X1_HS A0 A1 B0 B1 C0 C1 Y
*
*Net Section
*
*|GROUND_NET VSS!
*
*LAYER_MAP
*0 none
*1 metal1
*2 li
*3 poly
*4 diff
*5 licon_diff
*6 mcon
*7 licon
*8 FOX

*|NET B1 1.17549e-15
*|P (B1 X 0 1.8550 1.9800) // $llx=1.8550 $lly=1.9800 $urx=1.8550 $ury=1.9800 $lvl=1
*|I (Mmp3:g Mmp3 g X 0 2.2850 3.0150) // $llx=2.2850 $lly=3.0150 $urx=2.2850 $ury=3.0150 $lvl=3
*|I (Mmn3:g Mmn3 g X 0 2.2850 0.7750) // $llx=2.2850 $lly=0.7750 $urx=2.2850 $ury=0.7750 $lvl=3
*|S (B1:8 2.2850 3.8950) // $llx=2.2850 $lly=3.8950 $urx=2.2850 $ury=3.8950 $lvl=3
*|S (B1:9 2.2750 1.9500) // $llx=2.2750 $lly=1.9500 $urx=2.2750 $ury=1.9500 $lvl=3
*|S (B1:10 2.2750 1.7850) // $llx=2.2750 $lly=1.7850 $urx=2.2750 $ury=1.7850 $lvl=3
*|S (B1:11 2.2850 0.2450) // $llx=2.2850 $lly=0.2450 $urx=2.2850 $ury=0.2450 $lvl=3
*|S (B1:12 2.4600 1.9500) // $llx=2.4600 $lly=1.9500 $urx=2.4600 $ury=1.9500 $lvl=2
*|S (B1:13 2.2750 1.9500) // $llx=2.2750 $lly=1.9500 $urx=2.2750 $ury=1.9500 $lvl=2
*|S (B1:14 1.8400 1.9500) // $llx=1.8400 $lly=1.9500 $urx=1.8400 $ury=1.9500 $lvl=2
*|S (B1:15 1.6750 1.9500) // $llx=1.6750 $lly=1.9500 $urx=1.6750 $ury=1.9500 $lvl=2
*|S (B1:16 1.8400 1.9500) // $llx=1.8400 $lly=1.9500 $urx=1.8400 $ury=1.9500 $lvl=1
CD1 Mmn3:g VSS! 3.08665e-18 $lvl=3
CD2 B1:8 VSS! 2.95018e-18 $lvl=3
CD3 B1:16 VSS! 2.06661e-17 $lvl=1
CD4 B1:13 VSS! 9.08702e-18 $lvl=2
CD5 B1:15 VSS! 9.21129e-18 $lvl=2
CD6 B1:14 VSS! 4.92944e-18 $lvl=2
CD7 B1:9 VSS! 1.95729e-17 $lvl=3
CD8 Mmn3:g n0:7 1.27003e-16 $lvl1=3 $lvl2=2
CD9 B1:16 n1:11 1.79053e-17 $lvl1=1 $lvl2=1
CD10 Mmn3:g n1:6 1.27415e-16 $lvl1=3 $lvl2=2
CD11 B1:8 n3 1.77581e-18 $lvl1=3 $lvl2=2
CD12 B1:9 Mmp3:s 1.36106e-18 $lvl1=3 $lvl2=4
CD13 B1:13 n3:4 8.72811e-18 $lvl1=2 $lvl2=2
CD14 B1:14 n3:4 2.1653e-18 $lvl1=2 $lvl2=2
CD15 B1:16 n3:4 8.00895e-18 $lvl1=1 $lvl2=2
CD16 B1:8 n3:3 7.20879e-17 $lvl1=3 $lvl2=2
CD17 B1:16 n3:3 5.24388e-18 $lvl1=1 $lvl2=2
CD18 B1:8 n3:4 3.21772e-18 $lvl1=3 $lvl2=2
CD19 B1:15 n3:4 8.64317e-18 $lvl1=2 $lvl2=2
CD20 B1:9 n3:4 4.57338e-18 $lvl1=3 $lvl2=2
CD21 Mmn3:g VSS!:4 8.84841e-18 $lvl1=3 $lvl2=2
CD22 B1:8 VDD!:9 4.55357e-18 $lvl1=3 $lvl2=2
CD23 B1:9 VDD! 3.05553e-18 $lvl1=3 $lvl2=1
CD24 B1:16 VDD!:19 2.60371e-18 $lvl1=1 $lvl2=1
CD25 B1:14 VDD!:9 1.91413e-18 $lvl1=2 $lvl2=2
CD26 B1:9 VDD!:9 1.20205e-18 $lvl1=3 $lvl2=2
CD27 B1:16 VDD! 9.21783e-18 $lvl1=1 $lvl2=1
CD28 B1:15 VDD!:9 1.10047e-17 $lvl1=2 $lvl2=2
CD29 B1:16 VDD!:9 1.44444e-17 $lvl1=1 $lvl2=2
CD30 B1:8 VDD!:6 9.34796e-18 $lvl1=3 $lvl2=2
CD31 B1:16 Y:16 4.88077e-18 $lvl1=1 $lvl2=1
CD32 B1:13 Y 4.83307e-18 $lvl1=2 $lvl2=1
CD33 B1:9 Y:9 3.73254e-18 $lvl1=3 $lvl2=2
CD34 B1:16 Y 3.0833e-18 $lvl1=1 $lvl2=1
CD35 B1:9 Y:10 2.74669e-18 $lvl1=3 $lvl2=2
CD36 B1:13 Y:9 1.69096e-18 $lvl1=2 $lvl2=2
CD37 B1:16 Y:1 1.45293e-18 $lvl1=1 $lvl2=2
CD38 B1:16 Y:9 1.2392e-18 $lvl1=1 $lvl2=2
CD39 B1:9 Mmp3:d 1.09106e-18 $lvl1=3 $lvl2=4
CD40 B1:16 Y:21 9.59115e-19 $lvl1=1 $lvl2=1
CD41 B1:8 Y:10 9.1017e-19 $lvl1=3 $lvl2=2
CD42 B1:15 Y:5 7.6108e-19 $lvl1=2 $lvl2=2
CD43 B1:15 Y:1 7.09158e-19 $lvl1=2 $lvl2=2
CD44 B1:8 Y:9 2.59051e-16 $lvl1=3 $lvl2=2
CD45 B1:16 Y:18 1.12545e-17 $lvl1=1 $lvl2=1
CD46 B1:13 Y:10 6.60128e-18 $lvl1=2 $lvl2=2
CD47 B1:16 Y:17 1.01753e-17 $lvl1=1 $lvl2=1
CD48 B1:13 C1:15 4.50625e-18 $lvl1=2 $lvl2=2
CD49 B1:9 C1:9 4.32949e-18 $lvl1=3 $lvl2=3
CD50 B1:9 C1:15 3.93244e-18 $lvl1=3 $lvl2=2
CD51 B1:13 C1:14 3.35245e-18 $lvl1=2 $lvl2=2
CD52 B1:16 C1:14 3.14582e-18 $lvl1=1 $lvl2=2
CD53 B1:14 C1:16 2.92802e-18 $lvl1=2 $lvl2=1
CD54 B1:13 C1:12 2.53736e-18 $lvl1=2 $lvl2=2
CD55 B1:9 C1:8 2.39508e-18 $lvl1=3 $lvl2=3
CD56 Mmn3:g C1:9 2.32278e-18 $lvl1=3 $lvl2=3
CD57 B1:13 C1:9 1.9312e-18 $lvl1=2 $lvl2=3
CD58 B1:15 C1:15 1.73632e-18 $lvl1=2 $lvl2=2
CD59 B1:15 C1:16 1.42793e-18 $lvl1=2 $lvl2=1
CD60 Mmn3:g C1:15 1.39963e-18 $lvl1=3 $lvl2=2
CD61 B1:16 C1:15 1.28878e-18 $lvl1=1 $lvl2=2
CD62 B1:9 C1:12 1.18577e-18 $lvl1=3 $lvl2=2
CD63 B1:13 C1:18 1.01413e-18 $lvl1=2 $lvl2=1
CD64 B1:9 C1:14 8.10234e-19 $lvl1=3 $lvl2=2
CD65 B1:16 C1:18 3.35641e-17 $lvl1=1 $lvl2=1
CD66 B1:13 C1:16 1.18258e-17 $lvl1=2 $lvl2=1
CD67 B1:16 C1:16 8.0331e-17 $lvl1=1 $lvl2=1
ReD42 B1 B1:16 0.014423 $metal1  $L=0.03 $W=0.260000 $SI_W=0.26 $TYPE=10 $DIR=1 $LLX=1.710000 $LLY=1.950000 $URX=1.970000 $URY=1.980000 $lvl=1
RfD43 B1:12 B1:13 13.929413 $li  $L=0.185 $W=0.170000 $SI_W=0.17 $TYPE=10 $DIR=0 $LLX=2.275000 $LLY=1.865000 $URX=2.460000 $URY=2.035000 $lvl=2
RfD44 B1:13 B1:14 32.752941 $li  $L=0.435 $W=0.170000 $SI_W=0.17 $TYPE=10 $DIR=0 $LLX=1.840000 $LLY=1.865000 $URX=2.275000 $URY=2.035000 $lvl=2
RfD45 B1:14 B1:15 12.423529 $li  $L=0.165 $W=0.170000 $SI_W=0.17 $TYPE=10 $DIR=0 $LLX=1.675000 $LLY=1.865000 $URX=1.840000 $URY=2.035000 $lvl=2
RgD46 B1:8 Mmp3:g 282.773346 $poly  $L=0.88 $W=0.150000 $SI_W=0.15 $TYPE=10 $DIR=1 $LLX=2.210000 $LLY=3.015000 $URX=2.360000 $URY=3.895000 $lvl=3
RgD47 Mmp3:g B1:9 323.379089 $poly  $L=1.065 $W=0.150000 $SI_W=0.15 $TYPE=10 $DIR=1 $LLX=2.210000 $LLY=1.950000 $URX=2.360000 $URY=3.015000 $lvl=3
RgD48 B1:9 B1:10 34.134449 $poly  $L=0.1645 $W=0.270000 $SI_W=0.27 $TYPE=10 $DIR=1 $LLX=2.140000 $LLY=1.785500 $URX=2.410000 $URY=1.950000 $lvl=3
RgD49 B1:10 Mmn3:g 324.591278 $poly  $L=1.01 $W=0.150000 $SI_W=0.15 $TYPE=10 $DIR=1 $LLX=2.210000 $LLY=0.775000 $URX=2.360000 $URY=1.785000 $lvl=3
RgD50 Mmn3:g B1:11 170.306671 $poly  $L=0.53 $W=0.150000 $SI_W=0.15 $TYPE=10 $DIR=1 $LLX=2.210000 $LLY=0.245000 $URX=2.360000 $URY=0.775000 $lvl=3
RjD51 B1:14 B1:16 152.000000 $mcon  $L=0.17 $W=0.17 $A=0.0289 $VC=0 $SAVL=0 $SAVC=0 $SI_A=0.0289 $COVER_DIR=0 $LLX=0.000000 $LLY=0.000000 $URX=0.170000 $URY=0.170000 $lvl=6
RiD52 B1:9 B1:13 15.000000 $licon  $L=0.17 $W=0.17 $A=0.0289 $VC=0 $SAVL=0 $SAVC=0 $SI_A=0.0289 $COVER_DIR=0 $LLX=0.000000 $LLY=0.000000 $URX=0.170000 $URY=0.170000 $lvl=7
*
*|NET C1 1.20132e-15
*|P (C1 X 0 2.3150 1.7750) // $llx=2.3150 $lly=1.7750 $urx=2.3150 $ury=1.7750 $lvl=1
*|I (Mmp5:g Mmp5 g X 0 2.7150 3.0150) // $llx=2.7150 $lly=3.0150 $urx=2.7150 $ury=3.0150 $lvl=3
*|I (Mmn5:g Mmn5 g X 0 2.7150 0.7750) // $llx=2.7150 $lly=0.7750 $urx=2.7150 $ury=0.7750 $lvl=3
*|S (C1:8 2.7150 3.8950) // $llx=2.7150 $lly=3.8950 $urx=2.7150 $ury=3.8950 $lvl=3
*|S (C1:9 2.7050 1.4300) // $llx=2.7050 $lly=1.4300 $urx=2.7050 $ury=1.4300 $lvl=3
*|S (C1:10 2.7050 1.2650) // $llx=2.7050 $lly=1.2650 $urx=2.7050 $ury=1.2650 $lvl=3
*|S (C1:11 2.7150 0.2450) // $llx=2.7150 $lly=0.2450 $urx=2.7150 $ury=0.2450 $lvl=3
*|S (C1:12 2.8900 1.4300) // $llx=2.8900 $lly=1.4300 $urx=2.8900 $ury=1.4300 $lvl=2
*|S (C1:13 2.7050 1.4300) // $llx=2.7050 $lly=1.4300 $urx=2.7050 $ury=1.4300 $lvl=2
*|S (C1:14 2.3000 1.4300) // $llx=2.3000 $lly=1.4300 $urx=2.3000 $ury=1.4300 $lvl=2
*|S (C1:15 2.1350 1.4300) // $llx=2.1350 $lly=1.4300 $urx=2.1350 $ury=1.4300 $lvl=2
*|S (C1:16 2.3000 2.4300) // $llx=2.3000 $lly=2.4300 $urx=2.3000 $ury=2.4300 $lvl=1
*|S (C1:17 2.3000 1.4300) // $llx=2.3000 $lly=1.4300 $urx=2.3000 $ury=1.4300 $lvl=1
*|S (C1:18 2.3000 1.1900) // $llx=2.3000 $lly=1.1900 $urx=2.3000 $ury=1.1900 $lvl=1
CF1 Mmn5:g VSS! 2.55569e-18 $lvl=3
CF2 C1:8 VSS! 3.11625e-18 $lvl=3
CF3 C1:16 VSS! 1.93224e-17 $lvl=1
CF4 C1:18 VSS! 9.17111e-18 $lvl=1
CF5 C1:12 VSS! 5.5906e-18 $lvl=2
CF6 C1:15 VSS! 6.4773e-18 $lvl=2
CF7 C1:14 VSS! 3.63769e-18 $lvl=2
CF8 C1:9 VSS! 1.92228e-17 $lvl=3
CF9 C1:14 n0:7 5.13973e-18 $lvl1=2 $lvl2=2
CF10 C1:18 n0:15 3.40807e-18 $lvl1=1 $lvl2=1
CF11 C1:18 n0:7 2.66005e-18 $lvl1=1 $lvl2=2
CF12 C1:12 n0:9 2.57583e-18 $lvl1=2 $lvl2=2
CF13 C1:9 n0:9 1.70728e-18 $lvl1=3 $lvl2=2
CF14 C1:9 Mmn3:d 1.23415e-18 $lvl1=3 $lvl2=4
CF15 C1:9 n0:7 8.23501e-18 $lvl1=3 $lvl2=2
CF16 Mmn5:g n0:7 1.28396e-16 $lvl1=3 $lvl2=2
CF17 C1:15 n0:7 8.62751e-18 $lvl1=2 $lvl2=2
CF18 C1:12 n0:7 8.28942e-18 $lvl1=2 $lvl2=2
CF19 C1:14 n1:6 3.59683e-18 $lvl1=2 $lvl2=2
CF20 C1:18 n1:7 2.69039e-18 $lvl1=1 $lvl2=2
CF21 C1:14 n1:7 1.97111e-18 $lvl1=2 $lvl2=2
CF22 C1:18 n1:6 1.38728e-18 $lvl1=1 $lvl2=2
CF23 C1:14 n1:11 1.23269e-18 $lvl1=2 $lvl2=1
CF24 C1:8 n4 1.72168e-18 $lvl1=3 $lvl2=2
CF25 C1:16 n4:4 9.37521e-19 $lvl1=1 $lvl2=2
CF26 C1:15 n1:6 9.12941e-18 $lvl1=2 $lvl2=2
CF27 C1:18 n1:11 3.01837e-17 $lvl1=1 $lvl2=1
CF28 C1:8 n4:4 3.54644e-18 $lvl1=3 $lvl2=2
CF29 C1:8 n4:3 7.02097e-17 $lvl1=3 $lvl2=2
CF30 Mmn5:g VSS!:4 9.10782e-18 $lvl1=3 $lvl2=2
CF31 C1:16 VDD! 5.60306e-18 $lvl1=1 $lvl2=1
CF32 C1:8 VDD!:16 4.3205e-18 $lvl1=3 $lvl2=2
CF33 C1:18 VDD! 3.56441e-18 $lvl1=1 $lvl2=1
CF34 C1:16 VDD!:19 1.25022e-18 $lvl1=1 $lvl2=1
CF35 C1:8 VDD!:6 1.0151e-17 $lvl1=3 $lvl2=2
CF36 C1:16 Y:9 4.66843e-18 $lvl1=1 $lvl2=2
CF37 C1:12 Y 4.63265e-18 $lvl1=2 $lvl2=1
CF38 C1:18 Y:22 4.59728e-18 $lvl1=1 $lvl2=1
CF39 C1:16 Y:10 4.37241e-18 $lvl1=1 $lvl2=2
CF40 C1:16 Y:17 3.77362e-18 $lvl1=1 $lvl2=1
CF41 C1:16 Y:21 3.17191e-18 $lvl1=1 $lvl2=1
CF42 C1:12 Y:12 2.9299e-18 $lvl1=2 $lvl2=2
CF43 C1:14 Y:21 2.82692e-18 $lvl1=2 $lvl2=1
CF44 C1:14 Y 1.40606e-18 $lvl1=2 $lvl2=1
CF45 C1:16 Y:18 1.34459e-18 $lvl1=1 $lvl2=1
CF46 C1:9 Mmn4:d 1.18802e-18 $lvl1=3 $lvl2=4
CF47 C1:8 Y:10 1.09399e-18 $lvl1=3 $lvl2=2
CF48 C1:9 Y 1.01837e-18 $lvl1=3 $lvl2=1
CF49 C1:15 Y 7.9003e-19 $lvl1=2 $lvl2=1
CF50 Mmn5:g Y:15 6.31057e-19 $lvl1=3 $lvl2=2
CF51 C1:15 Y:21 5.57141e-19 $lvl1=2 $lvl2=1
CF52 C1:9 Y:12 4.513e-19 $lvl1=3 $lvl2=2
CF53 C1:16 Y:16 1.18209e-17 $lvl1=1 $lvl2=1
CF54 Mmn5:g Y:11 1.2403e-16 $lvl1=3 $lvl2=2
CF55 C1:16 Y 7.25674e-17 $lvl1=1 $lvl2=1
CF56 C1:18 Y:21 3.82239e-17 $lvl1=1 $lvl2=1
CF57 C1:18 Y 1.08178e-17 $lvl1=1 $lvl2=1
CF58 C1:8 Y:9 2.61095e-16 $lvl1=3 $lvl2=2
CF59 C1:12 Y:11 1.00343e-17 $lvl1=2 $lvl2=2
CF60 C1:9 Y:11 8.37908e-18 $lvl1=3 $lvl2=2
CF61 C1:12 Y:21 1.0048e-17 $lvl1=2 $lvl2=1
ReF67 C1:16 C1 0.314904 $metal1  $L=0.655 $W=0.260000 $SI_W=0.26 $TYPE=10 $DIR=1 $LLX=2.170000 $LLY=1.775000 $URX=2.430000 $URY=2.430000 $lvl=1
ReF68 C1 C1:17 0.165865 $metal1  $L=0.345 $W=0.260000 $SI_W=0.26 $TYPE=10 $DIR=1 $LLX=2.170000 $LLY=1.430000 $URX=2.430000 $URY=1.775000 $lvl=1
ReF69 C1:17 C1:18 0.115385 $metal1  $L=0.24 $W=0.260000 $SI_W=0.26 $TYPE=10 $DIR=1 $LLX=2.170000 $LLY=1.190000 $URX=2.430000 $URY=1.430000 $lvl=1
RfF70 C1:12 C1:13 13.929413 $li  $L=0.185 $W=0.170000 $SI_W=0.17 $TYPE=10 $DIR=0 $LLX=2.705000 $LLY=1.345000 $URX=2.890000 $URY=1.515000 $lvl=2
RfF71 C1:13 C1:14 30.494118 $li  $L=0.405 $W=0.170000 $SI_W=0.17 $TYPE=10 $DIR=0 $LLX=2.300000 $LLY=1.345000 $URX=2.705000 $URY=1.515000 $lvl=2
RfF72 C1:14 C1:15 12.423529 $li  $L=0.165 $W=0.170000 $SI_W=0.17 $TYPE=10 $DIR=0 $LLX=2.135000 $LLY=1.345000 $URX=2.300000 $URY=1.515000 $lvl=2
RgF73 C1:8 Mmp5:g 282.773346 $poly  $L=0.88 $W=0.150000 $SI_W=0.15 $TYPE=10 $DIR=1 $LLX=2.640000 $LLY=3.015000 $URX=2.790000 $URY=3.895000 $lvl=3
RgF74 Mmp5:g C1:9 490.472412 $poly  $L=1.585 $W=0.150000 $SI_W=0.15 $TYPE=10 $DIR=1 $LLX=2.640000 $LLY=1.430000 $URX=2.790000 $URY=3.015000 $lvl=3
RgF75 C1:9 C1:10 34.134449 $poly  $L=0.1645 $W=0.270000 $SI_W=0.27 $TYPE=10 $DIR=1 $LLX=2.570000 $LLY=1.265500 $URX=2.840000 $URY=1.430000 $lvl=3
RgF76 C1:10 Mmn5:g 157.497955 $poly  $L=0.49 $W=0.150000 $SI_W=0.15 $TYPE=10 $DIR=1 $LLX=2.640000 $LLY=0.775000 $URX=2.790000 $URY=1.265000 $lvl=3
RgF77 Mmn5:g C1:11 170.306671 $poly  $L=0.53 $W=0.150000 $SI_W=0.15 $TYPE=10 $DIR=1 $LLX=2.640000 $LLY=0.245000 $URX=2.790000 $URY=0.775000 $lvl=3
RjF78 C1:14 C1:17 152.000000 $mcon  $L=0.17 $W=0.17 $A=0.0289 $VC=0 $SAVL=0 $SAVC=0 $SI_A=0.0289 $COVER_DIR=0 $LLX=0.000000 $LLY=0.000000 $URX=0.170000 $URY=0.170000 $lvl=6
RiF79 C1:9 C1:13 15.000000 $licon  $L=0.17 $W=0.17 $A=0.0289 $VC=0 $SAVL=0 $SAVC=0 $SI_A=0.0289 $COVER_DIR=0 $LLX=0.000000 $LLY=0.000000 $URX=0.170000 $URY=0.170000 $lvl=7
*
*|NET VSS! 2.06992e-15
*|P (VSS! X 0 2.4150 0.0050) // $llx=2.4150 $lly=0.0050 $urx=2.4150 $ury=0.0050 $lvl=1
*|I (Mmn3:b Mmn3 b X 0 2.2850 0.7750) // $llx=2.2850 $lly=0.7750 $urx=2.2850 $ury=0.7750 $lvl=8
*|I (Mmn4:b Mmn4 b X 0 3.1450 0.7750) // $llx=3.1450 $lly=0.7750 $urx=3.1450 $ury=0.7750 $lvl=8
*|I (Mmn2:b Mmn2 b X 0 1.8550 0.7750) // $llx=1.8550 $lly=0.7750 $urx=1.8550 $ury=0.7750 $lvl=8
*|I (Mmn1:s Mmn1 s X 0 0.9805 0.7750) // $llx=0.9805 $lly=0.7750 $urx=0.9805 $ury=0.7750 $lvl=4
*|I (Mmn1:b Mmn1 b X 0 0.9050 0.7750) // $llx=0.9050 $lly=0.7750 $urx=0.9050 $ury=0.7750 $lvl=8
*|I (Mmn0:s Mmn0 s X 0 0.3995 0.7750) // $llx=0.3995 $lly=0.7750 $urx=0.3995 $ury=0.7750 $lvl=4
*|I (Mmn0:b Mmn0 b X 0 0.4750 0.7750) // $llx=0.4750 $lly=0.7750 $urx=0.4750 $ury=0.7750 $lvl=8
*|I (Mmn5:b Mmn5 b X 0 2.7150 0.7750) // $llx=2.7150 $lly=0.7750 $urx=2.7150 $ury=0.7750 $lvl=8
*|S (VSS!:1 1.1200 1.1550) // $llx=1.1200 $lly=1.1550 $urx=1.1200 $ury=1.1550 $lvl=2
*|S (VSS!:3 1.1200 0.7750) // $llx=1.1200 $lly=0.7750 $urx=1.1200 $ury=0.7750 $lvl=2
*|S (VSS!:4 1.1200 0.0000) // $llx=1.1200 $lly=0.0000 $urx=1.1200 $ury=0.0000 $lvl=2
*|S (VSS!:5 0.2600 0.0000) // $llx=0.2600 $lly=0.0000 $urx=0.2600 $ury=0.0000 $lvl=2
*|S (VSS!:6 0.0000 0.0000) // $llx=0.0000 $lly=0.0000 $urx=0.0000 $ury=0.0000 $lvl=2
*|S (VSS!:7 1.8400 0.0000) // $llx=1.8400 $lly=0.0000 $urx=1.8400 $ury=0.0000 $lvl=2
*|S (VSS!:8 1.8400 0.0000) // $llx=1.8400 $lly=0.0000 $urx=1.8400 $ury=0.0000 $lvl=4
*|S (VSS!:11 0.2600 0.7750) // $llx=0.2600 $lly=0.7750 $urx=0.2600 $ury=0.7750 $lvl=2
*|S (VSS!:12 0.2600 1.1550) // $llx=0.2600 $lly=1.1550 $urx=0.2600 $ury=1.1550 $lvl=2
*|S (VSS!:13 3.6800 0.0000) // $llx=3.6800 $lly=0.0000 $urx=3.6800 $ury=0.0000 $lvl=1
*|S (VSS!:14 1.8400 0.0000) // $llx=1.8400 $lly=0.0000 $urx=1.8400 $ury=0.0000 $lvl=1
*|S (VSS!:15 0.0000 0.0000) // $llx=0.0000 $lly=0.0000 $urx=0.0000 $ury=0.0000 $lvl=1
ReI129 VSS!:13 VSS! 0.395312 $metal1  $L=1.265 $W=0.400000 $SI_W=0.4 $TYPE=10 $DIR=0 $LLX=2.415000 $LLY=-0.199500 $URX=3.680000 $URY=0.200000 $lvl=1
ReI130 VSS! VSS!:14 0.179688 $metal1  $L=0.575 $W=0.400000 $SI_W=0.4 $TYPE=10 $DIR=0 $LLX=1.840000 $LLY=-0.199500 $URX=2.415000 $URY=0.200000 $lvl=1
ReI131 VSS!:14 VSS!:15 0.575000 $metal1  $L=1.84 $W=0.400000 $SI_W=0.4 $TYPE=10 $DIR=0 $LLX=0.000000 $LLY=-0.199500 $URX=1.840000 $URY=0.200000 $lvl=1
RfI132 VSS!:1 VSS!:3 28.611765 $li  $L=0.38 $W=0.170000 $SI_W=0.17 $TYPE=10 $DIR=1 $LLX=1.035000 $LLY=0.775000 $URX=1.205000 $URY=1.155000 $lvl=2
RfI133 VSS!:3 VSS!:4 55.328377 $li  $L=0.77475 $W=0.170000 $SI_W=0.17 $TYPE=10 $DIR=1 $LLX=1.035000 $LLY=0.000000 $URX=1.205000 $URY=0.775000 $lvl=2
RfI134 VSS!:4 VSS!:5 44.031998 $li  $L=0.86 $W=0.250000 $SI_W=0.25 $TYPE=10 $DIR=0 $LLX=0.260000 $LLY=-0.124500 $URX=1.120000 $URY=0.125000 $lvl=2
RfI135 VSS!:5 VSS!:6 13.324800 $li  $L=0.26025 $W=0.250000 $SI_W=0.25 $TYPE=10 $DIR=0 $LLX=0.000000 $LLY=-0.124500 $URX=0.260000 $URY=0.125000 $lvl=2
RfI136 VSS!:4 VSS!:7 36.851200 $li  $L=0.71975 $W=0.250000 $SI_W=0.25 $TYPE=10 $DIR=0 $LLX=1.120000 $LLY=-0.124500 $URX=1.840000 $URY=0.125000 $lvl=2
RfI137 VSS!:5 VSS!:11 55.328377 $li  $L=0.77475 $W=0.170000 $SI_W=0.17 $TYPE=10 $DIR=1 $LLX=0.175000 $LLY=0.000000 $URX=0.345000 $URY=0.775000 $lvl=2
RfI138 VSS!:11 VSS!:12 28.611765 $li  $L=0.38 $W=0.170000 $SI_W=0.17 $TYPE=10 $DIR=1 $LLX=0.175000 $LLY=0.775000 $URX=0.345000 $URY=1.155000 $lvl=2
RhI139 Mmn1:s VSS!:3 7.500000 $licon_diff  $A=0.0578 $VC=0 $SAVL=0 $SAVC=0 $SI_A=0.0578 $COVER_DIR=0 $LLX=0.000000 $LLY=0.000000 $URX=-0.057800 $URY=-2.000000 $lvl=5
RhI140 Mmn0:s VSS!:11 7.500000 $licon_diff  $A=0.0578 $VC=0 $SAVL=0 $SAVC=0 $SI_A=0.0578 $COVER_DIR=0 $LLX=0.000000 $LLY=0.000000 $URX=-0.057800 $URY=-2.000000 $lvl=5
Rh_3_I141 VSS!:8 VSS!:7 2.142857 $licon_diff  $A=0.2023 $VC=0 $SAVL=0 $SAVC=0 $SI_A=0.2023 $COVER_DIR=0 $LLX=0.000000 $LLY=0.000000 $URX=-0.202300 $URY=-7.000000 $lvl=5
RjI142 VSS!:7 VSS!:14 21.714285 $mcon  $A=0.2023 $VC=0 $SAVL=0 $SAVC=0 $SI_A=0.2023 $COVER_DIR=0 $LLX=0.000000 $LLY=0.000000 $URX=-0.202300 $URY=-7.000000 $lvl=6
RmwI143 Mmn3:b VSS! 0.001000 $FOX $W=1000000 $SI_W=1000000 $TYPE=1 $DIR=0
RmwI144 Mmn4:b VSS! 0.001000 $FOX $W=1000000 $SI_W=1000000 $TYPE=1 $DIR=0
RmwI145 Mmn2:b VSS! 0.001000 $FOX $W=1000000 $SI_W=1000000 $TYPE=1 $DIR=0
RmwI146 Mmn1:b VSS! 0.001000 $FOX $W=1000000 $SI_W=1000000 $TYPE=1 $DIR=0
RmwI147 Mmn0:b VSS! 0.001000 $FOX $W=1000000 $SI_W=1000000 $TYPE=1 $DIR=0
RmwI148 Mmn5:b VSS! 0.001000 $FOX $W=1000000 $SI_W=1000000 $TYPE=1 $DIR=0
*
*|NET n0 1.61272e-15
*|I (Mmn3:d Mmn3 d X 0 2.3605 0.7750) // $llx=2.3605 $lly=0.7750 $urx=2.3605 $ury=0.7750 $lvl=4
*|I (Mmn4:s Mmn4 s X 0 3.2205 0.7750) // $llx=3.2205 $lly=0.7750 $urx=3.2205 $ury=0.7750 $lvl=4
*|I (Mmn2:d Mmn2 d X 0 1.7795 0.7750) // $llx=1.7795 $lly=0.7750 $urx=1.7795 $ury=0.7750 $lvl=4
*|I (Mmn5:s Mmn5 s X 0 2.6395 0.7750) // $llx=2.6395 $lly=0.7750 $urx=2.6395 $ury=0.7750 $lvl=4
*|S (n0 1.6400 1.1550) // $llx=1.6400 $lly=1.1550 $urx=1.6400 $ury=1.1550 $lvl=2
*|S (n0:3 1.6400 0.7750) // $llx=1.6400 $lly=0.7750 $urx=1.6400 $ury=0.7750 $lvl=2
*|S (n0:4 1.6400 0.5600) // $llx=1.6400 $lly=0.5600 $urx=1.6400 $ury=0.5600 $lvl=2
*|S (n0:5 2.5000 1.1550) // $llx=2.5000 $lly=1.1550 $urx=2.5000 $ury=1.1550 $lvl=2
*|S (n0:7 2.5000 0.7750) // $llx=2.5000 $lly=0.7750 $urx=2.5000 $ury=0.7750 $lvl=2
*|S (n0:8 2.5000 0.5600) // $llx=2.5000 $lly=0.5600 $urx=2.5000 $ury=0.5600 $lvl=2
*|S (n0:9 3.3600 1.1550) // $llx=3.3600 $lly=1.1550 $urx=3.3600 $ury=1.1550 $lvl=2
*|S (n0:11 3.3600 0.7750) // $llx=3.3600 $lly=0.7750 $urx=3.3600 $ury=0.7750 $lvl=2
*|S (n0:12 3.3600 0.5600) // $llx=3.3600 $lly=0.5600 $urx=3.3600 $ury=0.5600 $lvl=2
*|S (n0:13 3.5050 0.5600) // $llx=3.5050 $lly=0.5600 $urx=3.5050 $ury=0.5600 $lvl=1
*|S (n0:14 3.3600 0.5600) // $llx=3.3600 $lly=0.5600 $urx=3.3600 $ury=0.5600 $lvl=1
*|S (n0:15 2.5000 0.5600) // $llx=2.5000 $lly=0.5600 $urx=2.5000 $ury=0.5600 $lvl=1
*|S (n0:16 1.6400 0.5600) // $llx=1.6400 $lly=0.5600 $urx=1.6400 $ury=0.5600 $lvl=1
*|S (n0:17 1.4950 0.5600) // $llx=1.4950 $lly=0.5600 $urx=1.4950 $ury=0.5600 $lvl=1
CL1 Mmn2:d VSS! 1.43474e-18 $lvl=4
CL2 Mmn4:s VSS! 2.83137e-18 $lvl=4
CL3 Mmn3:d VSS! 1.63866e-18 $lvl=4
CL4 n0:15 VSS! 6.9316e-18 $lvl=1
CL5 n0:13 VSS! 7.11683e-18 $lvl=1
CL6 n0:17 VSS! 7.37134e-18 $lvl=1
CL7 n0:9 VSS! 2.24463e-17 $lvl=2
CL8 n0:7 VSS! 4.80015e-18 $lvl=2
CL9 n0:4 VSS! 2.77478e-18 $lvl=2
CL10 n0:8 VSS! 1.41033e-18 $lvl=2
CL11 n0:12 VSS! 5.79672e-18 $lvl=2
CL12 n0 VSS! 1.49017e-17 $lvl=2
CL13 n0:8 VSS!:14 5.90702e-18 $lvl1=2 $lvl2=1
CL14 Mmn2:d VSS!:3 5.40644e-18 $lvl1=4 $lvl2=2
CL15 n0:9 VSS!:13 4.82493e-18 $lvl1=2 $lvl2=1
CL16 Mmn2:d VSS!:4 4.58582e-18 $lvl1=4 $lvl2=2
CL17 n0 Mmn1:s 4.40071e-18 $lvl1=2 $lvl2=4
CL18 n0:13 VSS!:4 3.62566e-18 $lvl1=1 $lvl2=2
CL19 n0:4 VSS!:14 3.54606e-18 $lvl1=2 $lvl2=1
CL20 n0 VSS!:7 3.0105e-18 $lvl1=2 $lvl2=2
CL21 n0:17 VSS!:4 2.91717e-18 $lvl1=1 $lvl2=2
CL22 n0:8 VSS!:4 2.88652e-18 $lvl1=2 $lvl2=2
CL23 n0:15 VSS!:7 2.85754e-18 $lvl1=1 $lvl2=2
CL24 n0:4 VSS!:3 2.68134e-18 $lvl1=2 $lvl2=2
CL25 n0 VSS!:14 2.6543e-18 $lvl1=2 $lvl2=1
CL26 n0:9 VSS!:8 2.6417e-18 $lvl1=2 $lvl2=4
CL27 n0:15 VSS!:4 2.62565e-18 $lvl1=1 $lvl2=2
CL28 n0:4 VSS!:4 2.57237e-18 $lvl1=2 $lvl2=2
CL29 n0:8 VSS!:7 2.47534e-18 $lvl1=2 $lvl2=2
CL30 n0:9 VSS!:7 2.45794e-18 $lvl1=2 $lvl2=2
CL31 n0:7 VSS!:7 2.44898e-18 $lvl1=2 $lvl2=2
CL32 n0:17 VSS!:3 2.36855e-18 $lvl1=1 $lvl2=2
CL33 n0:17 VSS!:7 2.35043e-18 $lvl1=1 $lvl2=2
CL34 Mmn4:s VSS!:4 2.27546e-18 $lvl1=4 $lvl2=2
CL35 n0:12 VSS!:4 1.8297e-18 $lvl1=2 $lvl2=2
CL36 n0:9 VSS!:14 1.78524e-18 $lvl1=2 $lvl2=1
CL37 n0:12 VSS!:13 1.77832e-18 $lvl1=2 $lvl2=1
CL38 n0:4 VSS!:7 1.7658e-18 $lvl1=2 $lvl2=2
CL39 n0:7 VSS!:14 1.7405e-18 $lvl1=2 $lvl2=1
CL40 n0:13 VSS!:7 1.7256e-18 $lvl1=1 $lvl2=2
CL41 Mmn3:d VSS!:4 1.67969e-18 $lvl1=4 $lvl2=2
CL42 n0:15 VSS!:14 6.76423e-17 $lvl1=1 $lvl2=1
CL43 n0:13 VSS!:14 3.69058e-17 $lvl1=1 $lvl2=1
CL44 n0 VSS!:3 4.50017e-17 $lvl1=2 $lvl2=2
CL45 n0:7 VSS!:4 1.94089e-17 $lvl1=2 $lvl2=2
CL46 n0:9 VSS!:4 2.64006e-17 $lvl1=2 $lvl2=2
CL47 n0:13 VSS!:13 2.15951e-17 $lvl1=1 $lvl2=1
CL48 n0:17 VSS!:14 5.57107e-17 $lvl1=1 $lvl2=1
CL49 n0 VSS!:4 2.39217e-17 $lvl1=2 $lvl2=2
ReL176 n0:13 n0:14 0.078804 $metal1  $L=0.145 $W=0.230000 $SI_W=0.23 $TYPE=10 $DIR=0 $LLX=3.360000 $LLY=0.445000 $URX=3.505000 $URY=0.675000 $lvl=1
ReL177 n0:14 n0:15 0.467391 $metal1  $L=0.86 $W=0.230000 $SI_W=0.23 $TYPE=10 $DIR=0 $LLX=2.500000 $LLY=0.445000 $URX=3.360000 $URY=0.675000 $lvl=1
ReL178 n0:15 n0:16 0.467391 $metal1  $L=0.86 $W=0.230000 $SI_W=0.23 $TYPE=10 $DIR=0 $LLX=1.640000 $LLY=0.445000 $URX=2.500000 $URY=0.675000 $lvl=1
ReL179 n0:16 n0:17 0.078804 $metal1  $L=0.145 $W=0.230000 $SI_W=0.23 $TYPE=10 $DIR=0 $LLX=1.495000 $LLY=0.445000 $URX=1.640000 $URY=0.675000 $lvl=1
RfL180 n0 n0:3 28.611765 $li  $L=0.38 $W=0.170000 $SI_W=0.17 $TYPE=10 $DIR=1 $LLX=1.555000 $LLY=0.775000 $URX=1.725000 $URY=1.155000 $lvl=2
RfL181 n0:3 n0:4 16.188236 $li  $L=0.215 $W=0.170000 $SI_W=0.17 $TYPE=10 $DIR=1 $LLX=1.555000 $LLY=0.560000 $URX=1.725000 $URY=0.775000 $lvl=2
RfL182 n0:5 n0:7 28.611765 $li  $L=0.38 $W=0.170000 $SI_W=0.17 $TYPE=10 $DIR=1 $LLX=2.415000 $LLY=0.775000 $URX=2.585000 $URY=1.155000 $lvl=2
RfL183 n0:7 n0:8 16.188236 $li  $L=0.215 $W=0.170000 $SI_W=0.17 $TYPE=10 $DIR=1 $LLX=2.415000 $LLY=0.560000 $URX=2.585000 $URY=0.775000 $lvl=2
RfL184 n0:9 n0:11 28.611765 $li  $L=0.38 $W=0.170000 $SI_W=0.17 $TYPE=10 $DIR=1 $LLX=3.275000 $LLY=0.775000 $URX=3.445000 $URY=1.155000 $lvl=2
RfL185 n0:11 n0:12 16.188236 $li  $L=0.215 $W=0.170000 $SI_W=0.17 $TYPE=10 $DIR=1 $LLX=3.275000 $LLY=0.560000 $URX=3.445000 $URY=0.775000 $lvl=2
RhL186 Mmn2:d n0:3 7.500000 $licon_diff  $A=0.0578 $VC=0 $SAVL=0 $SAVC=0 $SI_A=0.0578 $COVER_DIR=0 $LLX=0.000000 $LLY=0.000000 $URX=-0.057800 $URY=-2.000000 $lvl=5
RhL187 Mmn3:d n0:7 7.500000 $licon_diff  $A=0.0578 $VC=0 $SAVL=0 $SAVC=0 $SI_A=0.0578 $COVER_DIR=0 $LLX=0.000000 $LLY=0.000000 $URX=-0.057800 $URY=-2.000000 $lvl=5
RhL188 Mmn4:s n0:11 7.500000 $licon_diff  $A=0.0578 $VC=0 $SAVL=0 $SAVC=0 $SI_A=0.0578 $COVER_DIR=0 $LLX=0.000000 $LLY=0.000000 $URX=-0.057800 $URY=-2.000000 $lvl=5
RjL189 n0:12 n0:14 152.000000 $mcon  $L=0.17 $W=0.17 $A=0.0289 $VC=0 $SAVL=0 $SAVC=0 $SI_A=0.0289 $COVER_DIR=0 $LLX=0.000000 $LLY=0.000000 $URX=0.170000 $URY=0.170000 $lvl=6
RjL190 n0:8 n0:15 152.000000 $mcon  $L=0.17 $W=0.17 $A=0.0289 $VC=0 $SAVL=0 $SAVC=0 $SI_A=0.0289 $COVER_DIR=0 $LLX=0.000000 $LLY=0.000000 $URX=0.170000 $URY=0.170000 $lvl=6
RjL191 n0:4 n0:16 152.000000 $mcon  $L=0.17 $W=0.17 $A=0.0289 $VC=0 $SAVL=0 $SAVC=0 $SI_A=0.0289 $COVER_DIR=0 $LLX=0.000000 $LLY=0.000000 $URX=0.170000 $URY=0.170000 $lvl=6
RmwL192 Mmn5:s Mmn3:d 0.001000 $diff $W=1000000 $SI_W=1000000 $TYPE=1 $DIR=0
*
*|NET VDD! 2.35434e-15
*|P (VDD! X 0 2.4150 4.1450) // $llx=2.4150 $lly=4.1450 $urx=2.4150 $ury=4.1450 $lvl=1
*|I (Mmp3:b Mmp3 b X 0 2.2850 3.0150) // $llx=2.2850 $lly=3.0150 $urx=2.2850 $ury=3.0150 $lvl=8
*|I (Mmp0:s Mmp0 s X 0 0.3995 3.0150) // $llx=0.3995 $lly=3.0150 $urx=0.3995 $ury=3.0150 $lvl=4
*|I (Mmp0:b Mmp0 b X 0 0.4750 3.0150) // $llx=0.4750 $lly=3.0150 $urx=0.4750 $ury=3.0150 $lvl=8
*|I (Mmp4:s Mmp4 s X 0 3.2205 3.0150) // $llx=3.2205 $lly=3.0150 $urx=3.2205 $ury=3.0150 $lvl=4
*|I (Mmp4:b Mmp4 b X 0 3.1450 3.0150) // $llx=3.1450 $lly=3.0150 $urx=3.1450 $ury=3.0150 $lvl=8
*|I (Mmp2:s Mmp2 s X 0 1.7795 3.0150) // $llx=1.7795 $lly=3.0150 $urx=1.7795 $ury=3.0150 $lvl=4
*|I (Mmp2:b Mmp2 b X 0 1.8550 3.0150) // $llx=1.8550 $lly=3.0150 $urx=1.8550 $ury=3.0150 $lvl=8
*|I (Mmp1:b Mmp1 b X 0 0.9050 3.0150) // $llx=0.9050 $lly=3.0150 $urx=0.9050 $ury=3.0150 $lvl=8
*|I (Mmp5:b Mmp5 b X 0 2.7150 3.0150) // $llx=2.7150 $lly=3.0150 $urx=2.7150 $ury=3.0150 $lvl=8
*|S (VDD!:1 0.2600 2.2850) // $llx=0.2600 $lly=2.2850 $urx=0.2600 $ury=2.2850 $lvl=2
*|S (VDD!:3 0.2600 3.0150) // $llx=0.2600 $lly=3.0150 $urx=0.2600 $ury=3.0150 $lvl=2
*|S (VDD!:4 0.2600 4.1400) // $llx=0.2600 $lly=4.1400 $urx=0.2600 $ury=4.1400 $lvl=2
*|S (VDD!:5 0.0000 4.1400) // $llx=0.0000 $lly=4.1400 $urx=0.0000 $ury=4.1400 $lvl=2
*|S (VDD!:6 1.6400 4.1400) // $llx=1.6400 $lly=4.1400 $urx=1.6400 $ury=4.1400 $lvl=2
*|S (VDD!:8 1.6400 3.0150) // $llx=1.6400 $lly=3.0150 $urx=1.6400 $ury=3.0150 $lvl=2
*|S (VDD!:9 1.6400 2.2850) // $llx=1.6400 $lly=2.2850 $urx=1.6400 $ury=2.2850 $lvl=2
*|S (VDD!:10 1.8400 4.1400) // $llx=1.8400 $lly=4.1400 $urx=1.8400 $ury=4.1400 $lvl=2
*|S (VDD!:11 1.8400 4.1400) // $llx=1.8400 $lly=4.1400 $urx=1.8400 $ury=4.1400 $lvl=4
*|S (VDD!:13 3.3600 4.1400) // $llx=3.3600 $lly=4.1400 $urx=3.3600 $ury=4.1400 $lvl=2
*|S (VDD!:15 3.3600 3.0150) // $llx=3.3600 $lly=3.0150 $urx=3.3600 $ury=3.0150 $lvl=2
*|S (VDD!:16 3.3600 2.2850) // $llx=3.3600 $lly=2.2850 $urx=3.3600 $ury=2.2850 $lvl=2
*|S (VDD!:17 3.6795 4.1400) // $llx=3.6795 $lly=4.1400 $urx=3.6795 $ury=4.1400 $lvl=2
*|S (VDD!:18 3.6800 4.1400) // $llx=3.6800 $lly=4.1400 $urx=3.6800 $ury=4.1400 $lvl=1
*|S (VDD!:19 1.8400 4.1400) // $llx=1.8400 $lly=4.1400 $urx=1.8400 $ury=4.1400 $lvl=1
*|S (VDD!:20 0.0000 4.1400) // $llx=0.0000 $lly=4.1400 $urx=0.0000 $ury=4.1400 $lvl=1
CH1 Mmp2:s VSS! 3.09048e-18 $lvl=4
CH2 Mmp4:s VSS! 1.53727e-18 $lvl=4
CH3 Mmp0:s VSS! 2.81346e-18 $lvl=4
CH4 VDD!:19 VSS! 1.18548e-17 $lvl=1
CH5 VDD!:18 VSS! 6.78799e-18 $lvl=1
CH6 VDD!:20 VSS! 6.70793e-18 $lvl=1
CH7 VDD!:1 VSS! 9.32881e-18 $lvl=2
CH8 VDD!:9 VSS! 7.3732e-18 $lvl=2
CH9 VDD!:16 VSS! 9.31854e-18 $lvl=2
CH10 VDD!:17 VSS! 2.09917e-18 $lvl=2
CH11 VDD!:6 VSS! 4.20744e-18 $lvl=2
CH12 VDD!:4 VSS! 2.20624e-18 $lvl=2
CH13 VDD!:5 VSS! 1.68321e-18 $lvl=2
CH14 VDD!:11 VSS! 1.43084e-18 $lvl=4
CH15 VDD!:10 VSS! 2.97075e-18 $lvl=2
CH16 VDD! VSS! 9.48264e-18 $lvl=1
CH17 VDD! n0:15 5.32126e-18 $lvl1=1 $lvl2=1
CH18 VDD! n0:17 3.81432e-18 $lvl1=1 $lvl2=1
CH19 VDD! n0:13 1.53656e-17 $lvl1=1 $lvl2=1
CH20 VDD! n0:9 2.24e-17 $lvl1=1 $lvl2=2
CH21 VDD! n1:11 5.29567e-18 $lvl1=1 $lvl2=1
CH22 VDD!:16 Mmp4:d 1.6889e-18 $lvl1=2 $lvl2=4
CH23 VDD!:19 n4 1.61379e-18 $lvl1=1 $lvl2=2
CH24 VDD!:19 n4:3 9.09168e-19 $lvl1=1 $lvl2=2
CH25 VDD! n4:3 7.09849e-19 $lvl1=1 $lvl2=2
CH26 VDD!:6 n4:3 6.94957e-19 $lvl1=2 $lvl2=2
CH27 VDD!:10 n4 4.68038e-19 $lvl1=2 $lvl2=2
CH28 VDD! n4 3.63549e-19 $lvl1=1 $lvl2=2
CH29 VDD!:16 n4 1.13504e-17 $lvl1=2 $lvl2=2
CH30 VDD!:16 n4:3 4.54439e-17 $lvl1=2 $lvl2=2
CH31 VDD! n1:14 1.22793e-17 $lvl1=1 $lvl2=1
CH32 VDD!:6 n4 2.03991e-18 $lvl1=2 $lvl2=2
CH33 VDD!:16 n4:4 1.65755e-17 $lvl1=2 $lvl2=2
CH34 VDD!:6 Mmp4:d 1.93601e-18 $lvl1=2 $lvl2=4
CH35 VDD!:9 Mmp3:s 1.86109e-18 $lvl1=2 $lvl2=4
CH36 VDD!:6 Mmp3:s 1.8541e-18 $lvl1=2 $lvl2=4
CH37 VDD!:19 n3 1.3449e-18 $lvl1=1 $lvl2=2
CH38 VDD!:6 n3:3 6.08436e-19 $lvl1=2 $lvl2=2
CH39 VDD!:19 n3:3 5.37132e-19 $lvl1=1 $lvl2=2
CH40 VDD!:4 n2 1.80871e-18 $lvl1=2 $lvl2=2
CH41 VDD!:19 n2 1.77932e-18 $lvl1=1 $lvl2=2
CH42 VDD!:4 Mmp0:d 1.47914e-18 $lvl1=2 $lvl2=4
CH43 VDD!:19 n2:3 1.44447e-18 $lvl1=1 $lvl2=2
CH44 VDD! n2:4 1.17524e-18 $lvl1=1 $lvl2=2
CH45 VDD!:4 n2:3 6.64854e-19 $lvl1=2 $lvl2=2
CH46 VDD! n2 6.31673e-19 $lvl1=1 $lvl2=2
CH47 VDD!:20 n2:3 5.03675e-19 $lvl1=1 $lvl2=2
CH48 VDD!:10 n2 4.23969e-19 $lvl1=2 $lvl2=2
CH49 VDD!:20 n2 3.27724e-19 $lvl1=1 $lvl2=2
CH50 VDD!:6 n2 2.88949e-19 $lvl1=2 $lvl2=2
CH51 VDD!:9 n2:3 2.17154e-19 $lvl1=2 $lvl2=2
CH52 VDD!:6 n3 2.05676e-18 $lvl1=2 $lvl2=2
CH53 VDD!:9 n3:4 1.73152e-17 $lvl1=2 $lvl2=2
CH54 VDD!:9 n3:3 4.41485e-17 $lvl1=2 $lvl2=2
CH55 VDD! n2:3 3.96867e-18 $lvl1=1 $lvl2=2
CH56 VDD!:1 n2:4 1.90132e-17 $lvl1=2 $lvl2=2
CH57 VDD!:1 n2:3 4.57903e-17 $lvl1=2 $lvl2=2
CH58 VDD!:1 n2 1.17557e-17 $lvl1=2 $lvl2=2
CH59 VDD!:9 n3 1.07694e-17 $lvl1=2 $lvl2=2
CH60 VDD!:1 Mmp0:d 2.15419e-18 $lvl1=2 $lvl2=4
CH61 VDD! n3:3 1.97846e-18 $lvl1=1 $lvl2=2
CH62 VDD! VSS!:6 7.52897e-18 $lvl1=1 $lvl2=2
CH63 VDD!:19 VSS!:14 1.85276e-18 $lvl1=1 $lvl2=1
CH64 VDD!:1 VSS!:12 1.59084e-18 $lvl1=2 $lvl2=2
CH65 VDD!:1 VSS!:15 6.60019e-19 $lvl1=2 $lvl2=1
CH66 Mmp0:s VSS!:12 4.7259e-19 $lvl1=4 $lvl2=2
CH67 VDD!:19 VSS!:13 4.67625e-19 $lvl1=1 $lvl2=1
CH68 VDD!:18 VSS!:14 4.6499e-19 $lvl1=1 $lvl2=1
CH69 VDD! VSS!:12 2.39639e-17 $lvl1=1 $lvl2=2
CH70 VDD! VSS!:14 9.52999e-17 $lvl1=1 $lvl2=1
CH71 VDD! VSS!:4 7.75278e-17 $lvl1=1 $lvl2=2
CH72 VDD! VSS!:13 3.0973e-17 $lvl1=1 $lvl2=1
CH73 VDD! VSS!:5 2.02963e-17 $lvl1=1 $lvl2=2
CH74 VDD! VSS!:15 3.37364e-17 $lvl1=1 $lvl2=1
CH75 VDD! VSS!:7 9.5991e-18 $lvl1=1 $lvl2=2
ReH104 VDD!:18 VDD! 0.395312 $metal1  $L=1.265 $W=0.400000 $SI_W=0.4 $TYPE=10 $DIR=0 $LLX=2.415000 $LLY=3.940000 $URX=3.680000 $URY=4.340000 $lvl=1
ReH105 VDD! VDD!:19 0.179688 $metal1  $L=0.575 $W=0.400000 $SI_W=0.4 $TYPE=10 $DIR=0 $LLX=1.840000 $LLY=3.940000 $URX=2.415000 $URY=4.340000 $lvl=1
ReH106 VDD!:19 VDD!:20 0.575000 $metal1  $L=1.84 $W=0.400000 $SI_W=0.4 $TYPE=10 $DIR=0 $LLX=0.000000 $LLY=3.940000 $URX=1.840000 $URY=4.340000 $lvl=1