*
*|DSPF 1.5
*
*|DATE "Wed Jan  8 20:06:43 2025"
*|VENDOR "Cadence Design Systems"
*|PROGRAM "Cadence Quantus Extraction"
*|VERSION "22.1.0-p089 Linux 64 bit - (Thu Jan 19 11:47:08 PST 2023)"
*|DESIGN OAI221X2_HS
*|DIVIDER /
*|DELIMITER :
*|DeviceFingerDelim "@"
*|BUSBIT []
*|GLOBAL_TEMPERATURE 25
*|OPERATING_TEMPERATURE 25

** *VIA_COVERAGE_CODES
** *index FF FS FP FU SF SS SP SU PF PS PP PU UF US UP UU X_by_Y
** * "FF" stands for Full landing and Full coverage
** *0 0 0 0 0 0 0 0 0 0 0 0 0 0 0 0 0
** *1 0 0 0 0 0 0 0 0 0 0 0 0 0 0 0 1 1x1
** *2 0 0 0 0 0 0 0 0 0 0 0 0 0 0 1 0 1x1
** *3 0 0 0 0 0 0 0 0 0 0 0 0 0 1 0 0 1x1
** *4 0 0 0 0 0 0 0 0 0 0 0 0 1 0 0 0 1x1
** *5 0 0 0 0 0 0 0 0 0 0 0 1 0 0 0 0 1x1
** *6 0 0 0 0 0 0 0 0 0 0 1 0 0 0 0 0 1x1
** *7 0 0 0 0 0 0 0 0 0 1 0 0 0 0 0 0 1x1
** *8 0 0 0 0 0 0 0 0 1 0 0 0 0 0 0 0 1x1
** *9 0 0 0 0 0 0 0 1 0 0 0 0 0 0 0 0 1x1
** *10 0 0 0 0 0 0 1 0 0 0 0 0 0 0 0 0 1x1
** *11 0 0 0 0 0 1 0 0 0 0 0 0 0 0 0 0 1x1
** *12 0 0 0 0 1 0 0 0 0 0 0 0 0 0 0 0 1x1
** *13 0 0 0 1 0 0 0 0 0 0 0 0 0 0 0 0 1x1
** *14 0 0 1 0 0 0 0 0 0 0 0 0 0 0 0 0 1x1
** *15 0 1 0 0 0 0 0 0 0 0 0 0 0 0 0 0 1x1
** *16 1 0 0 0 0 0 0 0 0 0 0 0 0 0 0 0 1x1

** *RESISTOR_TYPES
** *1 SHORTING_ELEMENT
** *2 PRES_NG
** *3 PRES_PG
** *4 PRES_NF
** *5 PRES_PF
** *6 TCN_NDIFF
** *7 TCN_PDIFF
** *8 TCN_NFIELD
** *9 TCN_PFIELD
** *10 QUALITY_EXTRACTED
** *11 GCNLAND
** *12 TCNLAND
** *13 DUMMY
** *14 RSD
** *15 BRIDGE

** *RESISTOR_CURRENT_DIRECTION
** *0 HORIZONTAL
** *1 VERTICAL
** *2 45 DEGREE

** QRC_TECH_DIR /vols/wfo_devel/projects/reference_SKY130/tech/sky130_release_0.0.4/quantus/extraction/typical 
** HIERARCHICAL_SPLIT_PINS_DELIMITER '%'
** caps2d version: 10
*
.SUBCKT  OAI221X2_HS A0 A1 B0 B1 C0 Y
*
*Net Section
*
*|GROUND_NET VSS!
*
*LAYER_MAP
*0 none
*1 metal1
*2 li
*3 poly
*4 diff
*5 licon_diff
*6 mcon
*7 licon
*8 FOX

*|NET B1 2.03522e-15
*|P (B1 X 0 3.6950 1.8850) // $llx=3.6950 $lly=1.8850 $urx=3.6950 $ury=1.8850 $lvl=1
*|I (Mmp3:g Mmp3 g X 0 4.0050 3.0150) // $llx=4.0050 $lly=3.0150 $urx=4.0050 $ury=3.0150 $lvl=3
*|I (Mmp3@1:g Mmp3@1 g X 0 3.5750 3.0150) // $llx=3.5750 $lly=3.0150 $urx=3.5750 $ury=3.0150 $lvl=3
*|I (Mmn3:g Mmn3 g X 0 4.0050 0.7750) // $llx=4.0050 $lly=0.7750 $urx=4.0050 $ury=0.7750 $lvl=3
*|I (Mmn3@1:g Mmn3@1 g X 0 3.5750 0.7750) // $llx=3.5750 $lly=0.7750 $urx=3.5750 $ury=0.7750 $lvl=3
*|S (B1:15 4.0050 3.8950) // $llx=4.0050 $lly=3.8950 $urx=4.0050 $ury=3.8950 $lvl=3
*|S (B1:16 4.0050 1.6950) // $llx=4.0050 $lly=1.6950 $urx=4.0050 $ury=1.6950 $lvl=3
*|S (B1:17 3.7900 1.6950) // $llx=3.7900 $lly=1.6950 $urx=3.7900 $ury=1.6950 $lvl=3
*|S (B1:18 3.5750 1.6950) // $llx=3.5750 $lly=1.6950 $urx=3.5750 $ury=1.6950 $lvl=3
*|S (B1:19 3.5650 1.5300) // $llx=3.5650 $lly=1.5300 $urx=3.5650 $ury=1.5300 $lvl=3
*|S (B1:20 4.0150 1.5300) // $llx=4.0150 $lly=1.5300 $urx=4.0150 $ury=1.5300 $lvl=3
*|S (B1:21 4.0050 0.2450) // $llx=4.0050 $lly=0.2450 $urx=4.0050 $ury=0.2450 $lvl=3
*|S (B1:22 3.5650 1.8595) // $llx=3.5650 $lly=1.8595 $urx=3.5650 $ury=1.8595 $lvl=3
*|S (B1:23 3.5750 3.8950) // $llx=3.5750 $lly=3.8950 $urx=3.5750 $ury=3.8950 $lvl=3
*|S (B1:24 3.5750 0.2450) // $llx=3.5750 $lly=0.2450 $urx=3.5750 $ury=0.2450 $lvl=3
*|S (B1:25 3.7900 1.6950) // $llx=3.7900 $lly=1.6950 $urx=3.7900 $ury=1.6950 $lvl=2
*|S (B1:26 3.6800 1.6950) // $llx=3.6800 $lly=1.6950 $urx=3.6800 $ury=1.6950 $lvl=2
*|S (B1:27 3.6800 2.5300) // $llx=3.6800 $lly=2.5300 $urx=3.6800 $ury=2.5300 $lvl=1
*|S (B1:28 3.6800 1.6950) // $llx=3.6800 $lly=1.6950 $urx=3.6800 $ury=1.6950 $lvl=1
*|S (B1:29 3.6800 1.2900) // $llx=3.6800 $lly=1.2900 $urx=3.6800 $ury=1.2900 $lvl=1
CD1 Mmn3@1:g VSS! 3.10294e-18 $lvl=3
CD2 Mmn3:g VSS! 2.9458e-18 $lvl=3
CD3 B1:15 VSS! 6.12539e-18 $lvl=3
CD4 B1:23 VSS! 4.24709e-18 $lvl=3
CD5 B1:25 VSS! 9.0682e-18 $lvl=2
CD6 B1:27 VSS! 1.74479e-17 $lvl=1
CD7 B1:29 VSS! 9.19701e-18 $lvl=1
CD8 B1:26 VSS! 1.01048e-17 $lvl=2
CD9 B1:17 VSS! 3.85419e-17 $lvl=3
CD10 B1:27 net128:31 5.25505e-18 $lvl1=1 $lvl2=1
CD11 B1:17 net128:22 3.91014e-18 $lvl1=3 $lvl2=2
CD12 B1:27 net128:36 3.74839e-18 $lvl1=1 $lvl2=1
CD13 B1:25 net128:22 3.68466e-18 $lvl1=2 $lvl2=2
CD14 B1:17 net128:16 3.64491e-18 $lvl1=3 $lvl2=2
CD15 B1:25 net128:16 2.17941e-18 $lvl1=2 $lvl2=2
CD16 B1:29 net128:16 2.08853e-18 $lvl1=1 $lvl2=2
CD17 B1:29 net128:17 1.7895e-18 $lvl1=1 $lvl2=2
CD18 B1:27 net128:27 1.30774e-18 $lvl1=1 $lvl2=1
CD19 B1:25 net128:36 1.28663e-18 $lvl1=2 $lvl2=1
CD20 B1:26 net128:16 1.26476e-18 $lvl1=2 $lvl2=2
CD21 B1:29 net128:22 1.23309e-18 $lvl1=1 $lvl2=2
CD22 B1:26 net128:31 1.07427e-18 $lvl1=2 $lvl2=1
CD23 B1:26 net128:22 9.86617e-19 $lvl1=2 $lvl2=2
CD24 B1:29 net128:27 9.00532e-19 $lvl1=1 $lvl2=1
CD25 Mmn3:g net128:25 8.78425e-19 $lvl1=3 $lvl2=2
CD26 Mmn3@1:g net128:16 1.28274e-16 $lvl1=3 $lvl2=2
CD27 B1:29 net128:36 1.84803e-17 $lvl1=1 $lvl2=1
CD28 Mmn3:g net128:22 1.28284e-16 $lvl1=3 $lvl2=2
CD29 B1:29 net128:31 3.96689e-17 $lvl1=1 $lvl2=1
CD30 B1:17 net132:8 6.08832e-18 $lvl1=3 $lvl2=2
CD31 B1:25 net132:8 4.6627e-18 $lvl1=2 $lvl2=2
CD32 B1:29 net132:8 3.40438e-18 $lvl1=1 $lvl2=2
CD33 B1:26 net132:8 2.24974e-18 $lvl1=2 $lvl2=2
CD34 B1:29 net132:21 1.04415e-18 $lvl1=1 $lvl2=1
CD35 B1:17 Mmn3:d 1.02981e-18 $lvl1=3 $lvl2=4
CD36 B1:27 net132:24 1.01518e-18 $lvl1=1 $lvl2=1
CD37 Mmn3:g net132:8 1.27337e-16 $lvl1=3 $lvl2=2
CD38 Mmn3@1:g net132:8 1.32156e-16 $lvl1=3 $lvl2=2
CD39 B1:27 net123:10 5.92404e-18 $lvl1=1 $lvl2=2
CD40 B1:27 net123:6 4.62241e-18 $lvl1=1 $lvl2=2
CD41 B1:27 net123:15 2.95985e-18 $lvl1=1 $lvl2=2
CD42 B1:17 net123:11 2.46646e-18 $lvl1=3 $lvl2=2
CD43 B1:27 net123:11 2.28524e-18 $lvl1=1 $lvl2=2
CD44 B1:25 net123:15 2.21492e-18 $lvl1=2 $lvl2=2
CD45 B1:17 net123:6 1.93313e-18 $lvl1=3 $lvl2=2
CD46 B1:17 net123:15 1.8095e-18 $lvl1=3 $lvl2=2
CD47 B1:25 net123:10 1.70929e-18 $lvl1=2 $lvl2=2
CD48 B1:25 net123:11 1.41027e-18 $lvl1=2 $lvl2=2
CD49 B1:27 net123:19 1.25288e-18 $lvl1=1 $lvl2=1
CD50 B1:17 Mmp3:s 1.25051e-18 $lvl1=3 $lvl2=4
CD51 B1:17 net123:10 1.19746e-18 $lvl1=3 $lvl2=2
CD52 B1:27 net123:17 1.05831e-18 $lvl1=1 $lvl2=1
CD53 B1:15 net123:11 2.54574e-16 $lvl1=3 $lvl2=2
CD54 B1:23 net123:6 2.44458e-16 $lvl1=3 $lvl2=2
CD55 Mmn3@1:g VSS!:4 9.24136e-18 $lvl1=3 $lvl2=2
CD56 Mmn3:g VSS!:4 9.12851e-18 $lvl1=3 $lvl2=2
CD57 B1:23 VDD!:5 9.26391e-18 $lvl1=3 $lvl2=2
CD58 B1:15 VDD!:5 8.31845e-18 $lvl1=3 $lvl2=2
CD59 B1:27 VDD! 7.63062e-18 $lvl1=1 $lvl2=1
CD60 B1:17 VDD! 3.27301e-18 $lvl1=3 $lvl2=1
CD61 B1:27 VDD!:22 3.01491e-18 $lvl1=1 $lvl2=1
CD62 B1:29 VDD! 2.16886e-18 $lvl1=1 $lvl2=1
CD63 B1:27 VDD!:10 1.84479e-18 $lvl1=1 $lvl2=2
CD64 B1:27 Y:10 8.2536e-18 $lvl1=1 $lvl2=2
CD65 B1:27 Y:8 5.30181e-18 $lvl1=1 $lvl2=2
CD66 B1:17 Y:8 3.11899e-18 $lvl1=3 $lvl2=2
CD67 B1:17 Y:10 2.99797e-18 $lvl1=3 $lvl2=2
CD68 B1:27 Y:9 2.72806e-18 $lvl1=1 $lvl2=2
CD69 B1:25 Y:10 2.28218e-18 $lvl1=2 $lvl2=2
CD70 B1:27 Y:26 1.7323e-18 $lvl1=1 $lvl2=1
CD71 B1:25 Y:8 1.53341e-18 $lvl1=2 $lvl2=2
CD72 B1:27 Y:29 1.19113e-18 $lvl1=1 $lvl2=1
CD73 B1:26 Y:10 1.18134e-18 $lvl1=2 $lvl2=2
CD74 B1:27 Y:28 7.12419e-17 $lvl1=1 $lvl2=1
CD75 B1:23 Y:8 2.53702e-16 $lvl1=3 $lvl2=2
CD76 B1:15 Y:8 2.5275e-16 $lvl1=3 $lvl2=2
CD77 B1:25 C0:28 7.34704e-18 $lvl1=2 $lvl2=2
CD78 B1:17 C0:28 4.08392e-18 $lvl1=3 $lvl2=2
CD79 B1:25 C0:30 3.49665e-18 $lvl1=2 $lvl2=1
CD80 B1:29 C0:30 2.76746e-18 $lvl1=1 $lvl2=1
CD81 B1:27 C0:31 2.75615e-18 $lvl1=1 $lvl2=1
CD82 B1:29 C0:31 2.2252e-18 $lvl1=1 $lvl2=1
CD83 B1:25 C0:27 2.11275e-18 $lvl1=2 $lvl2=2
CD84 B1:25 C0:31 1.51152e-18 $lvl1=2 $lvl2=1
CD85 B1:17 C0:17 1.15383e-18 $lvl1=3 $lvl2=3
CD86 B1:27 C0:30 1.76657e-17 $lvl1=1 $lvl2=1
ReD58 B1:27 B1 0.310096 $metal1  $L=0.645 $W=0.260000 $SI_W=0.26 $TYPE=10 $DIR=1 $LLX=3.550000 $LLY=1.885000 $URX=3.810000 $URY=2.530000 $lvl=1
ReD59 B1 B1:28 0.091346 $metal1  $L=0.19 $W=0.260000 $SI_W=0.26 $TYPE=10 $DIR=1 $LLX=3.565000 $LLY=1.695000 $URX=3.825000 $URY=1.885000 $lvl=1
ReD60 B1:28 B1:29 0.194712 $metal1  $L=0.405 $W=0.260000 $SI_W=0.26 $TYPE=10 $DIR=1 $LLX=3.550000 $LLY=1.290000 $URX=3.810000 $URY=1.695000 $lvl=1
RfD61 B1:25 B1:26 8.282353 $li  $L=0.11 $W=0.170000 $SI_W=0.17 $TYPE=10 $DIR=0 $LLX=3.680000 $LLY=1.610000 $URX=3.790000 $URY=1.780000 $lvl=2
RgD62 B1:15 Mmp3:g 282.773346 $poly  $L=0.88 $W=0.150000 $SI_W=0.15 $TYPE=10 $DIR=1 $LLX=3.930000 $LLY=3.015000 $URX=4.080000 $URY=3.895000 $lvl=3
RgD63 Mmp3:g B1:16 418.638855 $poly  $L=1.31975 $W=0.150000 $SI_W=0.15 $TYPE=10 $DIR=1 $LLX=3.930000 $LLY=1.695000 $URX=4.080000 $URY=3.015000 $lvl=3
RgD64 B1:16 B1:17 31.439547 $poly  $L=0.21525 $W=0.330000 $SI_W=0.33 $TYPE=10 $DIR=0 $LLX=3.790000 $LLY=1.530000 $URX=4.005000 $URY=1.860000 $lvl=3
RgD65 B1:17 B1:18 31.366514 $poly  $L=0.21475 $W=0.330000 $SI_W=0.33 $TYPE=10 $DIR=0 $LLX=3.575000 $LLY=1.530000 $URX=3.790000 $URY=1.860000 $lvl=3
RgD66 B1:18 B1:19 46.784668 $poly  $L=0.16475 $W=0.170000 $SI_W=0.17 $TYPE=10 $DIR=1 $LLX=3.480000 $LLY=1.530000 $URX=3.650000 $URY=1.695000 $lvl=3
RgD67 B1:19 Mmn3@1:g 242.677551 $poly  $L=0.755 $W=0.150000 $SI_W=0.15 $TYPE=10 $DIR=1 $LLX=3.500000 $LLY=0.775000 $URX=3.650000 $URY=1.530000 $lvl=3
RgD68 B1:16 B1:20 46.784668 $poly  $L=0.16475 $W=0.170000 $SI_W=0.17 $TYPE=10 $DIR=1 $LLX=3.930000 $LLY=1.530000 $URX=4.100000 $URY=1.695000 $lvl=3
RgD69 B1:20 Mmn3:g 242.677551 $poly  $L=0.755 $W=0.150000 $SI_W=0.15 $TYPE=10 $DIR=1 $LLX=3.930000 $LLY=0.775000 $URX=4.080000 $URY=1.530000 $lvl=3
RgD70 Mmn3:g B1:21 170.306671 $poly  $L=0.53 $W=0.150000 $SI_W=0.15 $TYPE=10 $DIR=1 $LLX=3.930000 $LLY=0.245000 $URX=4.080000 $URY=0.775000 $lvl=3
RgD71 B1:18 B1:22 46.642902 $poly  $L=0.16425 $W=0.170000 $SI_W=0.17 $TYPE=10 $DIR=1 $LLX=3.480000 $LLY=1.695500 $URX=3.650000 $URY=1.859500 $lvl=3
RgD72 B1:22 Mmp3@1:g 371.210876 $poly  $L=1.155 $W=0.150000 $SI_W=0.15 $TYPE=10 $DIR=1 $LLX=3.500000 $LLY=1.859500 $URX=3.650000 $URY=3.014500 $lvl=3
RgD73 Mmp3@1:g B1:23 282.773346 $poly  $L=0.88 $W=0.150000 $SI_W=0.15 $TYPE=10 $DIR=1 $LLX=3.500000 $LLY=3.015000 $URX=3.650000 $URY=3.895000 $lvl=3
RgD74 Mmn3@1:g B1:24 170.306671 $poly  $L=0.53 $W=0.150000 $SI_W=0.15 $TYPE=10 $DIR=1 $LLX=3.500000 $LLY=0.245000 $URX=3.650000 $URY=0.775000 $lvl=3
RjD75 B1:26 B1:28 152.000000 $mcon  $L=0.17 $W=0.17 $A=0.0289 $VC=0 $SAVL=0 $SAVC=0 $SI_A=0.0289 $COVER_DIR=0 $LLX=0.000000 $LLY=0.000000 $URX=0.170000 $URY=0.170000 $lvl=6
RiD76 B1:17 B1:25 7.500000 $licon  $A=0.0578 $VC=0 $SAVL=0 $SAVC=0 $SI_A=0.0578 $COVER_DIR=0 $LLX=0.000000 $LLY=0.000000 $URX=-0.057800 $URY=-2.000000 $lvl=7
*
*|NET B0 2.01102e-15
*|P (B0 X 0 2.7750 1.8900) // $llx=2.7750 $lly=1.8900 $urx=2.7750 $ury=1.8900 $lvl=1
*|I (Mmp2:g Mmp2 g X 0 3.1450 3.0150) // $llx=3.1450 $lly=3.0150 $urx=3.1450 $ury=3.0150 $lvl=3
*|I (Mmp2@1:g Mmp2@1 g X 0 2.7150 3.0150) // $llx=2.7150 $lly=3.0150 $urx=2.7150 $ury=3.0150 $lvl=3
*|I (Mmn2:g Mmn2 g X 0 3.1450 0.7750) // $llx=3.1450 $lly=0.7750 $urx=3.1450 $ury=0.7750 $lvl=3
*|I (Mmn2@1:g Mmn2@1 g X 0 2.7150 0.7750) // $llx=2.7150 $lly=0.7750 $urx=2.7150 $ury=0.7750 $lvl=3
*|S (B0:15 3.1450 3.8950) // $llx=3.1450 $lly=3.8950 $urx=3.1450 $ury=3.8950 $lvl=3
*|S (B0:16 3.1450 1.6950) // $llx=3.1450 $lly=1.6950 $urx=3.1450 $ury=1.6950 $lvl=3
*|S (B0:17 2.9300 1.6950) // $llx=2.9300 $lly=1.6950 $urx=2.9300 $ury=1.6950 $lvl=3
*|S (B0:18 2.7150 1.6950) // $llx=2.7150 $lly=1.6950 $urx=2.7150 $ury=1.6950 $lvl=3
*|S (B0:19 2.7050 1.5300) // $llx=2.7050 $lly=1.5300 $urx=2.7050 $ury=1.5300 $lvl=3
*|S (B0:20 3.1550 1.5300) // $llx=3.1550 $lly=1.5300 $urx=3.1550 $ury=1.5300 $lvl=3
*|S (B0:21 3.1450 0.2450) // $llx=3.1450 $lly=0.2450 $urx=3.1450 $ury=0.2450 $lvl=3
*|S (B0:22 2.7050 1.8595) // $llx=2.7050 $lly=1.8595 $urx=2.7050 $ury=1.8595 $lvl=3
*|S (B0:23 2.7150 3.8950) // $llx=2.7150 $lly=3.8950 $urx=2.7150 $ury=3.8950 $lvl=3
*|S (B0:24 2.7150 0.2450) // $llx=2.7150 $lly=0.2450 $urx=2.7150 $ury=0.2450 $lvl=3
*|S (B0:25 2.9300 1.6950) // $llx=2.9300 $lly=1.6950 $urx=2.9300 $ury=1.6950 $lvl=2
*|S (B0:26 2.7600 1.6950) // $llx=2.7600 $lly=1.6950 $urx=2.7600 $ury=1.6950 $lvl=2
*|S (B0:27 2.7600 2.5300) // $llx=2.7600 $lly=2.5300 $urx=2.7600 $ury=2.5300 $lvl=1
*|S (B0:28 2.7600 1.6950) // $llx=2.7600 $lly=1.6950 $urx=2.7600 $ury=1.6950 $lvl=1
*|S (B0:29 2.7600 1.2900) // $llx=2.7600 $lly=1.2900 $urx=2.7600 $ury=1.2900 $lvl=1
CC1 Mmn2@1:g VSS! 3.4887e-18 $lvl=3
CC2 Mmn2:g VSS! 2.41378e-18 $lvl=3
CC3 B0:15 VSS! 4.4942e-18 $lvl=3
CC4 B0:23 VSS! 3.08982e-18 $lvl=3
CC5 B0:25 VSS! 1.42963e-17 $lvl=2
CC6 B0:27 VSS! 1.77659e-17 $lvl=1
CC7 B0:29 VSS! 1.60011e-17 $lvl=1
CC8 B0:26 VSS! 1.41043e-17 $lvl=2
CC9 B0:17 VSS! 3.72211e-17 $lvl=3
CC10 B0:27 net128:27 7.10423e-18 $lvl1=1 $lvl2=1
CC11 B0:27 net128:31 4.62695e-18 $lvl1=1 $lvl2=1
CC12 B0:17 net128:11 4.61942e-18 $lvl1=3 $lvl2=2
CC13 B0:17 net128:16 3.17725e-18 $lvl1=3 $lvl2=2
CC14 B0:29 net128:12 2.51391e-18 $lvl1=1 $lvl2=2
CC15 B0:25 net128:11 2.37895e-18 $lvl1=2 $lvl2=2
CC16 B0:25 net128:16 2.31102e-18 $lvl1=2 $lvl2=2
CC17 B0:29 net128:11 2.29652e-18 $lvl1=1 $lvl2=2
CC18 B0:27 net128:28 2.26382e-18 $lvl1=1 $lvl2=1
CC19 B0:25 net128:31 2.10166e-18 $lvl1=2 $lvl2=1
CC20 B0:26 net128:11 1.84761e-18 $lvl1=2 $lvl2=2
CC21 B0:26 net128:27 1.5452e-18 $lvl1=2 $lvl2=1
CC22 B0:29 net128:28 1.22251e-18 $lvl1=1 $lvl2=1
CC23 B0:25 net128:27 7.39132e-19 $lvl1=2 $lvl2=1
CC24 B0:29 net128:16 7.25225e-19 $lvl1=1 $lvl2=2
CC25 Mmn2:g net128:20 7.24916e-19 $lvl1=3 $lvl2=2
CC26 B0:27 net128:11 6.58143e-19 $lvl1=1 $lvl2=2
CC27 B0:25 net128:17 6.52741e-19 $lvl1=2 $lvl2=2
CC28 B0:17 Mmn2:s 6.23633e-19 $lvl1=3 $lvl2=4
CC29 Mmn2@1:g net128:16 6.19934e-19 $lvl1=3 $lvl2=2
CC30 B0:26 net128:16 5.63161e-19 $lvl1=2 $lvl2=2
CC31 B0:26 net128:31 5.45549e-19 $lvl1=2 $lvl2=1
CC32 B0:29 net128:27 4.64367e-17 $lvl1=1 $lvl2=1
CC33 B0:29 net128:31 1.48611e-17 $lvl1=1 $lvl2=1
CC34 Mmn2:g net128:16 1.27589e-16 $lvl1=3 $lvl2=2
CC35 Mmn2@1:g net128:11 1.32127e-16 $lvl1=3 $lvl2=2
CC36 B0:17 net132 6.28388e-18 $lvl1=3 $lvl2=2
CC37 B0:25 net132 4.15464e-18 $lvl1=2 $lvl2=2
CC38 Mmn2@1:g net132 1.26742e-16 $lvl1=3 $lvl2=2
CC39 Mmn2:g net132 1.2437e-16 $lvl1=3 $lvl2=2
CC40 B0:27 net123:5 6.7596e-18 $lvl1=1 $lvl2=2
CC41 B0:27 net123 5.99884e-18 $lvl1=1 $lvl2=2
CC42 B0:27 net123:10 2.65052e-18 $lvl1=1 $lvl2=2
CC43 B0:17 net123 2.04423e-18 $lvl1=3 $lvl2=2
CC44 B0:25 net123:10 1.9622e-18 $lvl1=2 $lvl2=2
CC45 B0:17 net123:5 1.68067e-18 $lvl1=3 $lvl2=2
CC46 B0:17 net123:6 1.66502e-18 $lvl1=3 $lvl2=2
CC47 B0:27 net123:6 1.66014e-18 $lvl1=1 $lvl2=2
CC48 B0:25 net123:5 1.49948e-18 $lvl1=2 $lvl2=2
CC49 B0:27 net123:20 1.43681e-18 $lvl1=1 $lvl2=1
CC50 B0:27 net123:19 1.4243e-18 $lvl1=1 $lvl2=1
CC51 B0:17 net123:10 1.41057e-18 $lvl1=3 $lvl2=2
CC52 B0:26 net123:5 1.23973e-18 $lvl1=2 $lvl2=2
CC53 B0:23 net123 2.47449e-16 $lvl1=3 $lvl2=2
CC54 B0:15 net123:6 2.5538e-16 $lvl1=3 $lvl2=2
CC55 B0:27 net115:15 2.08535e-18 $lvl1=1 $lvl2=2
CC56 B0:23 net115:11 1.79945e-18 $lvl1=3 $lvl2=2
CC57 Mmn2:g VSS!:4 9.93953e-18 $lvl1=3 $lvl2=2
CC58 Mmn2@1:g VSS!:4 9.55272e-18 $lvl1=3 $lvl2=2
CC59 B0:17 VSS!:1 2.35655e-18 $lvl1=3 $lvl2=2
CC60 B0:27 VSS!:18 2.34054e-18 $lvl1=1 $lvl2=1
CC61 B0:29 VSS!:18 1.93375e-18 $lvl1=1 $lvl2=1
CC62 B0:23 VDD!:5 8.29067e-18 $lvl1=3 $lvl2=2
CC63 B0:27 VDD! 7.33833e-18 $lvl1=1 $lvl2=1
CC64 B0:15 VDD!:5 6.58912e-18 $lvl1=3 $lvl2=2
CC65 B0:17 VDD!:10 5.59431e-18 $lvl1=3 $lvl2=2
CC66 B0:25 VDD!:10 3.91577e-18 $lvl1=2 $lvl2=2
CC67 B0:17 VDD! 3.82602e-18 $lvl1=3 $lvl2=1
CC68 B0:27 VDD!:22 2.37088e-18 $lvl1=1 $lvl2=1
CC69 B0:27 VDD!:10 1.39947e-17 $lvl1=1 $lvl2=2
CC70 B0:23 VDD!:10 2.52367e-16 $lvl1=3 $lvl2=2
CC71 B0:15 VDD!:10 2.51814e-16 $lvl1=3 $lvl2=2
CC72 B0:27 Y:28 4.57607e-17 $lvl1=1 $lvl2=1
CC73 B0:27 Y:29 2.75937e-17 $lvl1=1 $lvl2=1
CC74 B0:25 B1:27 4.07137e-18 $lvl1=2 $lvl2=1
CC75 B0:25 B1:17 3.82315e-18 $lvl1=2 $lvl2=3
CC76 B0:25 B1:26 3.23494e-18 $lvl1=2 $lvl2=2
CC77 B0:27 B1:29 3.16025e-18 $lvl1=1 $lvl2=1
CC78 B0:17 B1:25 2.99984e-18 $lvl1=3 $lvl2=2
CC79 B0:29 B1:27 2.6511e-18 $lvl1=1 $lvl2=1
CC80 B0:29 B1:29 1.94107e-18 $lvl1=1 $lvl2=1
CC81 B0:25 B1:29 1.43293e-18 $lvl1=2 $lvl2=1
CC82 B0:17 Mmn3@1:g 1.33474e-18 $lvl1=3 $lvl2=3
CC83 B0:27 B1:25 1.09183e-18 $lvl1=1 $lvl2=2
CC84 B0:17 B1:23 1.03884e-18 $lvl1=3 $lvl2=3
CC85 Mmn2:g B1:17 1.03149e-18 $lvl1=3 $lvl2=3
CC86 B0:17 B1:17 1.04868e-17 $lvl1=3 $lvl2=3
CC87 B0:25 B1:25 1.16205e-17 $lvl1=2 $lvl2=2
CC88 B0:27 B1:27 1.74491e-17 $lvl1=1 $lvl2=1
ReC39 B0:27 B0 0.307692 $metal1  $L=0.64 $W=0.260000 $SI_W=0.26 $TYPE=10 $DIR=1 $LLX=2.630000 $LLY=1.890000 $URX=2.890000 $URY=2.530000 $lvl=1
ReC40 B0 B0:28 0.093750 $metal1  $L=0.195 $W=0.260000 $SI_W=0.26 $TYPE=10 $DIR=1 $LLX=2.645000 $LLY=1.695000 $URX=2.905000 $URY=1.890000 $lvl=1
ReC41 B0:28 B0:29 0.194712 $metal1  $L=0.405 $W=0.260000 $SI_W=0.26 $TYPE=10 $DIR=1 $LLX=2.630000 $LLY=1.290000 $URX=2.890000 $URY=1.695000 $lvl=1
RfC42 B0:25 B0:26 12.800000 $li  $L=0.17 $W=0.170000 $SI_W=0.17 $TYPE=10 $DIR=0 $LLX=2.760000 $LLY=1.610000 $URX=2.930000 $URY=1.780000 $lvl=2
RgC43 B0:15 Mmp2:g 282.773346 $poly  $L=0.88 $W=0.150000 $SI_W=0.15 $TYPE=10 $DIR=1 $LLX=3.070000 $LLY=3.015000 $URX=3.220000 $URY=3.895000 $lvl=3
RgC44 Mmp2:g B0:16 418.638855 $poly  $L=1.31975 $W=0.150000 $SI_W=0.15 $TYPE=10 $DIR=1 $LLX=3.070000 $LLY=1.695000 $URX=3.220000 $URY=3.015000 $lvl=3
RgC45 B0:16 B0:17 31.439547 $poly  $L=0.21525 $W=0.330000 $SI_W=0.33 $TYPE=10 $DIR=0 $LLX=2.930000 $LLY=1.530000 $URX=3.145000 $URY=1.860000 $lvl=3
RgC46 B0:17 B0:18 31.366514 $poly  $L=0.21475 $W=0.330000 $SI_W=0.33 $TYPE=10 $DIR=0 $LLX=2.715000 $LLY=1.530000 $URX=2.930000 $URY=1.860000 $lvl=3
RgC47 B0:18 B0:19 46.784668 $poly  $L=0.16475 $W=0.170000 $SI_W=0.17 $TYPE=10 $DIR=1 $LLX=2.620000 $LLY=1.530000 $URX=2.790000 $URY=1.695000 $lvl=3
RgC48 B0:19 Mmn2@1:g 242.677551 $poly  $L=0.755 $W=0.150000 $SI_W=0.15 $TYPE=10 $DIR=1 $LLX=2.640000 $LLY=0.775000 $URX=2.790000 $URY=1.530000 $lvl=3
RgC49 B0:16 B0:20 46.784668 $poly  $L=0.16475 $W=0.170000 $SI_W=0.17 $TYPE=10 $DIR=1 $LLX=3.070000 $LLY=1.530000 $URX=3.240000 $URY=1.695000 $lvl=3
RgC50 B0:20 Mmn2:g 242.677551 $poly  $L=0.755 $W=0.150000 $SI_W=0.15 $TYPE=10 $DIR=1 $LLX=3.070000 $LLY=0.775000 $URX=3.220000 $URY=1.530000 $lvl=3
RgC51 Mmn2:g B0:21 170.306671 $poly  $L=0.53 $W=0.150000 $SI_W=0.15 $TYPE=10 $DIR=1 $LLX=3.070000 $LLY=0.245000 $URX=3.220000 $URY=0.775000 $lvl=3
RgC52 B0:18 B0:22 46.642902 $poly  $L=0.16425 $W=0.170000 $SI_W=0.17 $TYPE=10 $DIR=1 $LLX=2.620000 $LLY=1.695500 $URX=2.790000 $URY=1.859500 $lvl=3
RgC53 B0:22 Mmp2@1:g 371.210876 $poly  $L=1.155 $W=0.150000 $SI_W=0.15 $TYPE=10 $DIR=1 $LLX=2.640000 $LLY=1.859500 $URX=2.790000 $URY=3.014500 $lvl=3
RgC54 Mmp2@1:g B0:23 282.773346 $poly  $L=0.88 $W=0.150000 $SI_W=0.15 $TYPE=10 $DIR=1 $LLX=2.640000 $LLY=3.015000 $URX=2.790000 $URY=3.895000 $lvl=3
RgC55 Mmn2@1:g B0:24 170.306671 $poly  $L=0.53 $W=0.150000 $SI_W=0.15 $TYPE=10 $DIR=1 $LLX=2.640000 $LLY=0.245000 $URX=2.790000 $URY=0.775000 $lvl=3
RjC56 B0:26 B0:28 152.000000 $mcon  $L=0.17 $W=0.17 $A=0.0289 $VC=0 $SAVL=0 $SAVC=0 $SI_A=0.0289 $COVER_DIR=0 $LLX=0.000000 $LLY=0.000000 $URX=0.170000 $URY=0.170000 $lvl=6
RiC57 B0:17 B0:25 7.500000 $licon  $A=0.0578 $VC=0 $SAVL=0 $SAVC=0 $SI_A=0.0578 $COVER_DIR=0 $LLX=0.000000 $LLY=0.000000 $URX=-0.057800 $URY=-2.000000 $lvl=7
*
*|NET A1 2.03953e-15
*|P (A1 X 0 1.3950 1.8800) // $llx=1.3950 $lly=1.8800 $urx=1.3950 $ury=1.8800 $lvl=1
*|I (Mmp1:g Mmp1 g X 0 1.3350 3.0150) // $llx=1.3350 $lly=3.0150 $urx=1.3350 $ury=3.0150 $lvl=3
*|I (Mmp1@1:g Mmp1@1 g X 0 1.7650 3.0150) // $llx=1.7650 $lly=3.0150 $urx=1.7650 $ury=3.0150 $lvl=3
*|I (Mmn1:g Mmn1 g X 0 1.3350 0.7750) // $llx=1.3350 $lly=0.7750 $urx=1.3350 $ury=0.7750 $lvl=3
*|I (Mmn1@1:g Mmn1@1 g X 0 1.7650 0.7750) // $llx=1.7650 $lly=0.7750 $urx=1.7650 $ury=0.7750 $lvl=3
*|S (A1:15 1.7650 3.8950) // $llx=1.7650 $lly=3.8950 $urx=1.7650 $ury=3.8950 $lvl=3
*|S (A1:16 1.7650 1.6950) // $llx=1.7650 $lly=1.6950 $urx=1.7650 $ury=1.6950 $lvl=3
*|S (A1:17 1.5500 1.6950) // $llx=1.5500 $lly=1.6950 $urx=1.5500 $ury=1.6950 $lvl=3
*|S (A1:18 1.3350 1.6950) // $llx=1.3350 $lly=1.6950 $urx=1.3350 $ury=1.6950 $lvl=3
*|S (A1:19 1.3250 1.5300) // $llx=1.3250 $lly=1.5300 $urx=1.3250 $ury=1.5300 $lvl=3
*|S (A1:20 1.7750 1.5300) // $llx=1.7750 $lly=1.5300 $urx=1.7750 $ury=1.5300 $lvl=3
*|S (A1:21 1.7650 0.2450) // $llx=1.7650 $lly=0.2450 $urx=1.7650 $ury=0.2450 $lvl=3
*|S (A1:22 1.3250 1.8595) // $llx=1.3250 $lly=1.8595 $urx=1.3250 $ury=1.8595 $lvl=3
*|S (A1:23 1.3350 3.8950) // $llx=1.3350 $lly=3.8950 $urx=1.3350 $ury=3.8950 $lvl=3
*|S (A1:24 1.3350 0.2450) // $llx=1.3350 $lly=0.2450 $urx=1.3350 $ury=0.2450 $lvl=3
*|S (A1:25 1.5500 1.6950) // $llx=1.5500 $lly=1.6950 $urx=1.5500 $ury=1.6950 $lvl=2
*|S (A1:26 1.3800 1.6950) // $llx=1.3800 $lly=1.6950 $urx=1.3800 $ury=1.6950 $lvl=2
*|S (A1:27 1.3800 2.5250) // $llx=1.3800 $lly=2.5250 $urx=1.3800 $ury=2.5250 $lvl=1
*|S (A1:28 1.3800 1.6950) // $llx=1.3800 $lly=1.6950 $urx=1.3800 $ury=1.6950 $lvl=1
*|S (A1:29 1.3800 1.2850) // $llx=1.3800 $lly=1.2850 $urx=1.3800 $ury=1.2850 $lvl=1
CB1 Mmn1@1:g VSS! 2.93547e-18 $lvl=3
CB2 Mmn1:g VSS! 4.99963e-18 $lvl=3
CB3 A1:15 VSS! 7.3506e-18 $lvl=3
CB4 A1:23 VSS! 4.83049e-18 $lvl=3
CB5 A1:25 VSS! 1.31185e-17 $lvl=2
CB6 A1:27 VSS! 1.52745e-17 $lvl=1
CB7 A1:29 VSS! 7.50575e-18 $lvl=1
CB8 A1:26 VSS! 7.76892e-18 $lvl=2
CB9 A1:17 VSS! 3.95931e-17 $lvl=3
CB10 A1:29 net128:34 9.90145e-18 $lvl1=1 $lvl2=1
CB11 A1:27 net128:28 7.36594e-18 $lvl1=1 $lvl2=1
CB12 A1:17 net128:9 5.71123e-18 $lvl1=3 $lvl2=2
CB13 A1:27 net128:34 4.68894e-18 $lvl1=1 $lvl2=1
CB14 A1:27 net128:27 3.28709e-18 $lvl1=1 $lvl2=1
CB15 A1:25 net128:9 3.16043e-18 $lvl1=2 $lvl2=2
CB16 A1:29 net128:7 2.77846e-18 $lvl1=1 $lvl2=2
CB17 A1:29 net128:27 2.5633e-18 $lvl1=1 $lvl2=1
CB18 A1:25 net128:28 2.21609e-18 $lvl1=2 $lvl2=1
CB19 A1:29 net128:9 2.17086e-18 $lvl1=1 $lvl2=2
CB20 A1:25 net128:27 1.93146e-18 $lvl1=2 $lvl2=1
CB21 A1:26 net128:9 1.24004e-18 $lvl1=2 $lvl2=2
CB22 A1:26 net128:28 1.23167e-18 $lvl1=2 $lvl2=1
CB23 A1:17 net128:11 1.18665e-18 $lvl1=3 $lvl2=2
CB24 Mmn1@1:g net128:11 1.0817e-18 $lvl1=3 $lvl2=2
CB25 A1:25 net128:11 1.05398e-18 $lvl1=2 $lvl2=2
CB26 A1:25 net128:7 9.06142e-19 $lvl1=2 $lvl2=2
CB27 A1:27 net128:30 7.68054e-19 $lvl1=1 $lvl2=1
CB28 A1:17 Mmn1:d 7.24691e-19 $lvl1=3 $lvl2=4
CB29 A1:26 net128:34 7.23089e-19 $lvl1=2 $lvl2=1
CB30 A1:26 net128:7 6.51165e-19 $lvl1=2 $lvl2=2
CB31 A1:17 net128:28 6.11686e-19 $lvl1=3 $lvl2=1
CB32 A1:29 net128:28 5.23189e-17 $lvl1=1 $lvl2=1
CB33 Mmn1@1:g net128:9 1.28536e-16 $lvl1=3 $lvl2=2
CB34 Mmn1:g net128:9 1.26566e-16 $lvl1=3 $lvl2=2
CB35 A1:27 net115:18 7.61971e-18 $lvl1=1 $lvl2=1
CB36 A1:27 net115:6 7.15114e-18 $lvl1=1 $lvl2=2
CB37 A1:27 net115:10 6.013e-18 $lvl1=1 $lvl2=2
CB38 A1:25 net115:15 2.68679e-18 $lvl1=2 $lvl2=2
CB39 A1:27 net115:15 2.53786e-18 $lvl1=1 $lvl2=2
CB40 A1:27 net115:17 2.23377e-18 $lvl1=1 $lvl2=1
CB41 A1:17 net115:11 2.21863e-18 $lvl1=3 $lvl2=2
CB42 A1:27 net115:11 2.03886e-18 $lvl1=1 $lvl2=2
CB43 A1:17 net115:15 2.019e-18 $lvl1=3 $lvl2=2
CB44 A1:17 net115:6 1.7789e-18 $lvl1=3 $lvl2=2
CB45 A1:17 net115:10 1.72585e-18 $lvl1=3 $lvl2=2
CB46 A1:25 net115:11 1.45549e-18 $lvl1=2 $lvl2=2
CB47 A1:27 net115:21 1.40492e-18 $lvl1=1 $lvl2=1
CB48 A1:25 net115:10 1.40094e-18 $lvl1=2 $lvl2=2
CB49 A1:26 net115:10 1.15799e-18 $lvl1=2 $lvl2=2
CB50 A1:23 net115:6 2.54453e-16 $lvl1=3 $lvl2=2
CB51 A1:15 net115:11 2.59732e-16 $lvl1=3 $lvl2=2
CB52 Mmn1:g VSS!:5 8.16982e-18 $lvl1=3 $lvl2=2
CB53 A1:17 VSS!:1 7.62511e-18 $lvl1=3 $lvl2=2
CB54 A1:25 VSS!:1 7.45849e-18 $lvl1=2 $lvl2=2
CB55 Mmn1@1:g VSS!:4 7.09352e-18 $lvl1=3 $lvl2=2
CB56 A1:17 VSS!:13 5.64571e-18 $lvl1=3 $lvl2=2
CB57 A1:29 VSS!:13 3.914e-18 $lvl1=1 $lvl2=2
CB58 A1:25 VSS!:13 3.65501e-18 $lvl1=2 $lvl2=2
CB59 A1:26 VSS!:13 3.29761e-18 $lvl1=2 $lvl2=2
CB60 A1:27 VSS!:18 2.56625e-18 $lvl1=1 $lvl2=1
CB61 Mmn1@1:g VSS!:5 2.13397e-18 $lvl1=3 $lvl2=2
CB62 A1:29 VSS!:18 1.27163e-18 $lvl1=1 $lvl2=1
CB63 A1:29 VSS!:1 1.20943e-18 $lvl1=1 $lvl2=2
CB64 Mmn1:g VSS!:13 1.31226e-16 $lvl1=3 $lvl2=2
CB65 Mmn1@1:g VSS!:1 1.28836e-16 $lvl1=3 $lvl2=2
CB66 A1:27 VDD! 9.72878e-18 $lvl1=1 $lvl2=1
CB67 A1:23 VDD!:4 8.74266e-18 $lvl1=3 $lvl2=2
CB68 A1:15 VDD!:4 7.28065e-18 $lvl1=3 $lvl2=2
CB69 A1:27 VDD!:3 4.08267e-18 $lvl1=1 $lvl2=2
CB70 A1:17 VDD! 3.59913e-18 $lvl1=3 $lvl2=1
CB71 A1:29 VDD! 2.96204e-18 $lvl1=1 $lvl2=1
CB72 A1:27 VDD!:22 2.53895e-18 $lvl1=1 $lvl2=1
CB73 A1:27 Y:5 7.30079e-18 $lvl1=1 $lvl2=2
CB74 A1:27 Y:3 5.64306e-18 $lvl1=1 $lvl2=2
CB75 A1:27 Y:4 3.92516e-18 $lvl1=1 $lvl2=2
CB76 A1:17 Y:5 2.96719e-18 $lvl1=3 $lvl2=2
CB77 A1:17 Y:3 2.65304e-18 $lvl1=3 $lvl2=2
CB78 A1:25 Y:5 2.10799e-18 $lvl1=2 $lvl2=2
CB79 A1:26 Y:5 1.23761e-18 $lvl1=2 $lvl2=2
CB80 A1:15 Y:3 2.54137e-16 $lvl1=3 $lvl2=2
CB81 A1:27 Y:29 4.64242e-17 $lvl1=1 $lvl2=1
CB82 A1:23 Y:3 2.54865e-16 $lvl1=3 $lvl2=2
CB83 A1:27 B0:27 4.9682e-18 $lvl1=1 $lvl2=1
CB84 A1:25 B0:27 1.88755e-18 $lvl1=2 $lvl2=1
CB85 A1:29 B0:27 1.36231e-18 $lvl1=1 $lvl2=1
CB86 A1:17 B0:17 1.25917e-18 $lvl1=3 $lvl2=3
CB87 A1:27 B0:29 1.14972e-18 $lvl1=1 $lvl2=1
ReB20 A1:27 A1 0.310096 $metal1  $L=0.645 $W=0.260000 $SI_W=0.26 $TYPE=10 $DIR=1 $LLX=1.250000 $LLY=1.880000 $URX=1.510000 $URY=2.525000 $lvl=1
ReB21 A1 A1:28 0.088942 $metal1  $L=0.185 $W=0.260000 $SI_W=0.26 $TYPE=10 $DIR=1 $LLX=1.265000 $LLY=1.695000 $URX=1.525000 $URY=1.880000 $lvl=1
ReB22 A1:28 A1:29 0.197115 $metal1  $L=0.41 $W=0.260000 $SI_W=0.26 $TYPE=10 $DIR=1 $LLX=1.250000 $LLY=1.285000 $URX=1.510000 $URY=1.695000 $lvl=1
RfB23 A1:25 A1:26 12.800000 $li  $L=0.17 $W=0.170000 $SI_W=0.17 $TYPE=10 $DIR=0 $LLX=1.380000 $LLY=1.610000 $URX=1.550000 $URY=1.780000 $lvl=2
RgB24 A1:15 Mmp1@1:g 282.773346 $poly  $L=0.88 $W=0.150000 $SI_W=0.15 $TYPE=10 $DIR=1 $LLX=1.690000 $LLY=3.015000 $URX=1.840000 $URY=3.895000 $lvl=3
RgB25 Mmp1@1:g A1:16 418.638855 $poly  $L=1.31975 $W=0.150000 $SI_W=0.15 $TYPE=10 $DIR=1 $LLX=1.690000 $LLY=1.695000 $URX=1.840000 $URY=3.015000 $lvl=3
RgB26 A1:16 A1:17 31.439547 $poly  $L=0.21525 $W=0.330000 $SI_W=0.33 $TYPE=10 $DIR=0 $LLX=1.550000 $LLY=1.530000 $URX=1.765000 $URY=1.860000 $lvl=3
RgB27 A1:17 A1:18 31.366514 $poly  $L=0.21475 $W=0.330000 $SI_W=0.33 $TYPE=10 $DIR=0 $LLX=1.335000 $LLY=1.530000 $URX=1.550000 $URY=1.860000 $lvl=3
RgB28 A1:18 A1:19 46.784668 $poly  $L=0.16475 $W=0.170000 $SI_W=0.17 $TYPE=10 $DIR=1 $LLX=1.240000 $LLY=1.530000 $URX=1.410000 $URY=1.695000 $lvl=3
RgB29 A1:19 Mmn1:g 242.677551 $poly  $L=0.755 $W=0.150000 $SI_W=0.15 $TYPE=10 $DIR=1 $LLX=1.260000 $LLY=0.775000 $URX=1.410000 $URY=1.530000 $lvl=3
RgB30 A1:16 A1:20 46.784668 $poly  $L=0.16475 $W=0.170000 $SI_W=0.17 $TYPE=10 $DIR=1 $LLX=1.690000 $LLY=1.530000 $URX=1.860000 $URY=1.695000 $lvl=3
RgB31 A1:20 Mmn1@1:g 242.677551 $poly  $L=0.755 $W=0.150000 $SI_W=0.15 $TYPE=10 $DIR=1 $LLX=1.690000 $LLY=0.775000 $URX=1.840000 $URY=1.530000 $lvl=3
RgB32 Mmn1@1:g A1:21 170.306671 $poly  $L=0.53 $W=0.150000 $SI_W=0.15 $TYPE=10 $DIR=1 $LLX=1.690000 $LLY=0.245000 $URX=1.840000 $URY=0.775000 $lvl=3
RgB33 A1:18 A1:22 46.642902 $poly  $L=0.16425 $W=0.170000 $SI_W=0.17 $TYPE=10 $DIR=1 $LLX=1.240000 $LLY=1.695500 $URX=1.410000 $URY=1.859500 $lvl=3
RgB34 A1:22 Mmp1:g 371.210876 $poly  $L=1.155 $W=0.150000 $SI_W=0.15 $TYPE=10 $DIR=1 $LLX=1.260000 $LLY=1.859500 $URX=1.410000 $URY=3.014500 $lvl=3
RgB35 Mmp1:g A1:23 282.773346 $poly  $L=0.88 $W=0.150000 $SI_W=0.15 $TYPE=10 $DIR=1 $LLX=1.260000 $LLY=3.015000 $URX=1.410000 $URY=3.895000 $lvl=3
RgB36 Mmn1:g A1:24 170.306671 $poly  $L=0.53 $W=0.150000 $SI_W=0.15 $TYPE=10 $DIR=1 $LLX=1.260000 $LLY=0.245000 $URX=1.410000 $URY=0.775000 $lvl=3
RjB37 A1:26 A1:28 152.000000 $mcon  $L=0.17 $W=0.17 $A=0.0289 $VC=0 $SAVL=0 $SAVC=0 $SI_A=0.0289 $COVER_DIR=0 $LLX=0.000000 $LLY=0.000000 $URX=0.170000 $URY=0.170000 $lvl=6
RiB38 A1:17 A1:25 7.500000 $licon  $A=0.0578 $VC=0 $SAVL=0 $SAVC=0 $SI_A=0.0578 $COVER_DIR=0 $LLX=0.000000 $LLY=0.000000 $URX=-0.057800 $URY=-2.000000 $lvl=7
*
*|NET VDD! 4.31024e-15
*|P (VDD! X 0 2.7550 4.1450) // $llx=2.7550 $lly=4.1450 $urx=2.7550 $ury=4.1450 $lvl=1
*|I (Mmp0:s Mmp0 s X 0 0.5505 3.0150) // $llx=0.5505 $lly=3.0150 $urx=0.5505 $ury=3.0150 $lvl=4
*|I (Mmp0:b Mmp0 b X 0 0.4750 3.0150) // $llx=0.4750 $lly=3.0150 $urx=0.4750 $ury=3.0150 $lvl=8
*|I (Mmp0@1:s Mmp0@1 s X 0 0.8295 3.0150) // $llx=0.8295 $lly=3.0150 $urx=0.8295 $ury=3.0150 $lvl=4
*|I (Mmp0@1:b Mmp0@1 b X 0 0.9050 3.0150) // $llx=0.9050 $lly=3.0150 $urx=0.9050 $ury=3.0150 $lvl=8
*|I (Mmp1:b Mmp1 b X 0 1.3350 3.0150) // $llx=1.3350 $lly=3.0150 $urx=1.3350 $ury=3.0150 $lvl=8
*|I (Mmp1@1:b Mmp1@1 b X 0 1.7650 3.0150) // $llx=1.7650 $lly=3.0150 $urx=1.7650 $ury=3.0150 $lvl=8
*|I (Mmp4:s Mmp4 s X 0 4.8795 3.0150) // $llx=4.8795 $lly=3.0150 $urx=4.8795 $ury=3.0150 $lvl=4
*|I (Mmp4:b Mmp4 b X 0 4.9550 3.0150) // $llx=4.9550 $lly=3.0150 $urx=4.9550 $ury=3.0150 $lvl=8
*|I (Mmp4@1:s Mmp4@1 s X 0 5.4605 3.0150) // $llx=5.4605 $lly=3.0150 $urx=5.4605 $ury=3.0150 $lvl=4
*|I (Mmp4@1:b Mmp4@1 b X 0 5.3850 3.0150) // $llx=5.3850 $lly=3.0150 $urx=5.3850 $ury=3.0150 $lvl=8
*|I (Mmp2:s Mmp2 s X 0 3.0695 3.0150) // $llx=3.0695 $lly=3.0150 $urx=3.0695 $ury=3.0150 $lvl=4
*|I (Mmp2:b Mmp2 b X 0 3.1450 3.0150) // $llx=3.1450 $lly=3.0150 $urx=3.1450 $ury=3.0150 $lvl=8
*|I (Mmp2@1:s Mmp2@1 s X 0 2.7905 3.0150) // $llx=2.7905 $lly=3.0150 $urx=2.7905 $ury=3.0150 $lvl=4
*|I (Mmp2@1:b Mmp2@1 b X 0 2.7150 3.0150) // $llx=2.7150 $lly=3.0150 $urx=2.7150 $ury=3.0150 $lvl=8
*|I (Mmp3:b Mmp3 b X 0 4.0050 3.0150) // $llx=4.0050 $lly=3.0150 $urx=4.0050 $ury=3.0150 $lvl=8
*|I (Mmp3@1:b Mmp3@1 b X 0 3.5750 3.0150) // $llx=3.5750 $lly=3.0150 $urx=3.5750 $ury=3.0150 $lvl=8
*|S (VDD!:1 0.6900 2.2850) // $llx=0.6900 $lly=2.2850 $urx=0.6900 $ury=2.2850 $lvl=2
*|S (VDD!:3 0.6900 3.0150) // $llx=0.6900 $lly=3.0150 $urx=0.6900 $ury=3.0150 $lvl=2
*|S (VDD!:4 0.6900 4.1400) // $llx=0.6900 $lly=4.1400 $urx=0.6900 $ury=4.1400 $lvl=2
*|S (VDD!:5 2.9900 4.1400) // $llx=2.9900 $lly=4.1400 $urx=2.9900 $ury=4.1400 $lvl=2
*|S (VDD!:6 2.9900 4.1400) // $llx=2.9900 $lly=4.1400 $urx=2.9900 $ury=4.1400 $lvl=4
*|S (VDD!:8 0.0000 4.1400) // $llx=0.0000 $lly=4.1400 $urx=0.0000 $ury=4.1400 $lvl=2
*|S (VDD!:10 2.9300 3.0150) // $llx=2.9300 $lly=3.0150 $urx=2.9300 $ury=3.0150 $lvl=2
*|S (VDD!:11 2.9300 2.2850) // $llx=2.9300 $lly=2.2850 $urx=2.9300 $ury=2.2850 $lvl=2