*
*|DSPF 1.5
*
*|DATE "Wed Jan  8 20:17:11 2025"
*|VENDOR "Cadence Design Systems"
*|PROGRAM "Cadence Quantus Extraction"
*|VERSION "22.1.0-p089 Linux 64 bit - (Thu Jan 19 11:47:08 PST 2023)"
*|DESIGN OAI211X2_HS
*|DIVIDER /
*|DELIMITER :
*|DeviceFingerDelim "@"
*|BUSBIT []
*|GLOBAL_TEMPERATURE 25
*|OPERATING_TEMPERATURE 25

** *VIA_COVERAGE_CODES
** *index FF FS FP FU SF SS SP SU PF PS PP PU UF US UP UU X_by_Y
** * "FF" stands for Full landing and Full coverage
** *0 0 0 0 0 0 0 0 0 0 0 0 0 0 0 0 0
** *1 0 0 0 0 0 0 0 0 0 0 0 0 0 0 0 1 1x1
** *2 0 0 0 0 0 0 0 0 0 0 0 0 0 0 1 0 1x1
** *3 0 0 0 0 0 0 0 0 0 0 0 0 0 1 0 0 1x1
** *4 0 0 0 0 0 0 0 0 0 0 0 0 1 0 0 0 1x1
** *5 0 0 0 0 0 0 0 0 0 0 0 1 0 0 0 0 1x1
** *6 0 0 0 0 0 0 0 0 0 0 1 0 0 0 0 0 1x1
** *7 0 0 0 0 0 0 0 0 0 1 0 0 0 0 0 0 1x1
** *8 0 0 0 0 0 0 0 0 1 0 0 0 0 0 0 0 1x1
** *9 0 0 0 0 0 0 0 1 0 0 0 0 0 0 0 0 1x1
** *10 0 0 0 0 0 0 1 0 0 0 0 0 0 0 0 0 1x1
** *11 0 0 0 0 0 1 0 0 0 0 0 0 0 0 0 0 1x1
** *12 0 0 0 0 1 0 0 0 0 0 0 0 0 0 0 0 1x1
** *13 0 0 0 1 0 0 0 0 0 0 0 0 0 0 0 0 1x1
** *14 0 0 1 0 0 0 0 0 0 0 0 0 0 0 0 0 1x1
** *15 0 1 0 0 0 0 0 0 0 0 0 0 0 0 0 0 1x1
** *16 1 0 0 0 0 0 0 0 0 0 0 0 0 0 0 0 1x1

** *RESISTOR_TYPES
** *1 SHORTING_ELEMENT
** *2 PRES_NG
** *3 PRES_PG
** *4 PRES_NF
** *5 PRES_PF
** *6 TCN_NDIFF
** *7 TCN_PDIFF
** *8 TCN_NFIELD
** *9 TCN_PFIELD
** *10 QUALITY_EXTRACTED
** *11 GCNLAND
** *12 TCNLAND
** *13 DUMMY
** *14 RSD
** *15 BRIDGE

** *RESISTOR_CURRENT_DIRECTION
** *0 HORIZONTAL
** *1 VERTICAL
** *2 45 DEGREE

** QRC_TECH_DIR /vols/wfo_devel/projects/reference_SKY130/tech/sky130_release_0.0.4/quantus/extraction/typical 
** HIERARCHICAL_SPLIT_PINS_DELIMITER '%'
** caps2d version: 10
*
.SUBCKT  OAI211X2_HS A0 A1 B0 C0 Y
*
*Net Section
*
*|GROUND_NET VSS!
*
*LAYER_MAP
*0 none
*1 metal1
*2 li
*3 poly
*4 diff
*5 licon_diff
*6 mcon
*7 licon
*8 FOX

*|NET VSS! 2.78746e-15
*|P (VSS! X 0 2.4150 0.0050) // $llx=2.4150 $lly=0.0050 $urx=2.4150 $ury=0.0050 $lvl=1
*|I (Mmn3:b Mmn3 b X 0 3.5750 0.7750) // $llx=3.5750 $lly=0.7750 $urx=3.5750 $ury=0.7750 $lvl=8
*|I (Mmn3@1:b Mmn3@1 b X 0 4.0050 0.7750) // $llx=4.0050 $lly=0.7750 $urx=4.0050 $ury=0.7750 $lvl=8
*|I (Mmn2:b Mmn2 b X 0 2.7150 0.7750) // $llx=2.7150 $lly=0.7750 $urx=2.7150 $ury=0.7750 $lvl=8
*|I (Mmn2@1:b Mmn2@1 b X 0 3.1450 0.7750) // $llx=3.1450 $lly=0.7750 $urx=3.1450 $ury=0.7750 $lvl=8
*|I (Mmn1:s Mmn1 s X 0 1.4105 0.7750) // $llx=1.4105 $lly=0.7750 $urx=1.4105 $ury=0.7750 $lvl=4
*|I (Mmn1:b Mmn1 b X 0 1.3350 0.7750) // $llx=1.3350 $lly=0.7750 $urx=1.3350 $ury=0.7750 $lvl=8
*|I (Mmn1@1:s Mmn1@1 s X 0 1.6895 0.7750) // $llx=1.6895 $lly=0.7750 $urx=1.6895 $ury=0.7750 $lvl=4
*|I (Mmn1@1:b Mmn1@1 b X 0 1.7650 0.7750) // $llx=1.7650 $lly=0.7750 $urx=1.7650 $ury=0.7750 $lvl=8
*|I (Mmn0:s Mmn0 s X 0 0.5505 0.7750) // $llx=0.5505 $lly=0.7750 $urx=0.5505 $ury=0.7750 $lvl=4
*|I (Mmn0:b Mmn0 b X 0 0.4750 0.7750) // $llx=0.4750 $lly=0.7750 $urx=0.4750 $ury=0.7750 $lvl=8
*|I (Mmn0@1:s Mmn0@1 s X 0 0.8295 0.7750) // $llx=0.8295 $lly=0.7750 $urx=0.8295 $ury=0.7750 $lvl=4
*|I (Mmn0@1:b Mmn0@1 b X 0 0.9050 0.7750) // $llx=0.9050 $lly=0.7750 $urx=0.9050 $ury=0.7750 $lvl=8
*|S (VSS!:1 1.5500 1.1550) // $llx=1.5500 $lly=1.1550 $urx=1.5500 $ury=1.1550 $lvl=2
*|S (VSS!:3 1.5500 0.7750) // $llx=1.5500 $lly=0.7750 $urx=1.5500 $ury=0.7750 $lvl=2
*|S (VSS!:4 1.5500 0.0000) // $llx=1.5500 $lly=0.0000 $urx=1.5500 $ury=0.0000 $lvl=2
*|S (VSS!:5 0.6900 0.0000) // $llx=0.6900 $lly=0.0000 $urx=0.6900 $ury=0.0000 $lvl=2
*|S (VSS!:6 0.0000 0.0000) // $llx=0.0000 $lly=0.0000 $urx=0.0000 $ury=0.0000 $lvl=2
*|S (VSS!:7 2.3000 0.0000) // $llx=2.3000 $lly=0.0000 $urx=2.3000 $ury=0.0000 $lvl=2
*|S (VSS!:8 2.3000 0.0000) // $llx=2.3000 $lly=0.0000 $urx=2.3000 $ury=0.0000 $lvl=4
*|S (VSS!:11 0.6900 0.7750) // $llx=0.6900 $lly=0.7750 $urx=0.6900 $ury=0.7750 $lvl=2
*|S (VSS!:12 0.6900 1.1550) // $llx=0.6900 $lly=1.1550 $urx=0.6900 $ury=1.1550 $lvl=2
*|S (VSS!:13 4.6000 0.0000) // $llx=4.6000 $lly=0.0000 $urx=4.6000 $ury=0.0000 $lvl=1
*|S (VSS!:14 2.3000 0.0000) // $llx=2.3000 $lly=0.0000 $urx=2.3000 $ury=0.0000 $lvl=1
*|S (VSS!:15 0.0000 0.0000) // $llx=0.0000 $lly=0.0000 $urx=0.0000 $ury=0.0000 $lvl=1
ReG145 VSS!:13 VSS! 0.682813 $metal1  $L=2.185 $W=0.400000 $SI_W=0.4 $TYPE=10 $DIR=0 $LLX=2.415000 $LLY=-0.199500 $URX=4.600000 $URY=0.200000 $lvl=1
ReG146 VSS! VSS!:14 0.035937 $metal1  $L=0.115 $W=0.400000 $SI_W=0.4 $TYPE=10 $DIR=0 $LLX=2.300000 $LLY=-0.199500 $URX=2.415000 $URY=0.200000 $lvl=1
ReG147 VSS!:14 VSS!:15 0.718750 $metal1  $L=2.3 $W=0.400000 $SI_W=0.4 $TYPE=10 $DIR=0 $LLX=0.000000 $LLY=-0.199500 $URX=2.300000 $URY=0.200000 $lvl=1
RfG148 VSS!:1 VSS!:3 28.611765 $li  $L=0.38 $W=0.170000 $SI_W=0.17 $TYPE=10 $DIR=1 $LLX=1.465000 $LLY=0.775000 $URX=1.635000 $URY=1.155000 $lvl=2
RfG149 VSS!:3 VSS!:4 55.328377 $li  $L=0.77475 $W=0.170000 $SI_W=0.17 $TYPE=10 $DIR=1 $LLX=1.465000 $LLY=0.000000 $URX=1.635000 $URY=0.775000 $lvl=2
RfG150 VSS!:4 VSS!:5 44.031998 $li  $L=0.86 $W=0.250000 $SI_W=0.25 $TYPE=10 $DIR=0 $LLX=0.690000 $LLY=-0.124500 $URX=1.550000 $URY=0.125000 $lvl=2
RfG151 VSS!:5 VSS!:6 35.340801 $li  $L=0.69025 $W=0.250000 $SI_W=0.25 $TYPE=10 $DIR=0 $LLX=0.000000 $LLY=-0.124500 $URX=0.690000 $URY=0.125000 $lvl=2
RfG152 VSS!:4 VSS!:7 38.387199 $li  $L=0.74975 $W=0.250000 $SI_W=0.25 $TYPE=10 $DIR=0 $LLX=1.550000 $LLY=-0.124500 $URX=2.300000 $URY=0.125000 $lvl=2
RfG153 VSS!:5 VSS!:11 55.328377 $li  $L=0.77475 $W=0.170000 $SI_W=0.17 $TYPE=10 $DIR=1 $LLX=0.605000 $LLY=0.000000 $URX=0.775000 $URY=0.775000 $lvl=2
RfG154 VSS!:11 VSS!:12 28.611765 $li  $L=0.38 $W=0.170000 $SI_W=0.17 $TYPE=10 $DIR=1 $LLX=0.605000 $LLY=0.775000 $URX=0.775000 $URY=1.155000 $lvl=2
RhG155 Mmn1:s VSS!:3 7.500000 $licon_diff  $A=0.0578 $VC=0 $SAVL=0 $SAVC=0 $SI_A=0.0578 $COVER_DIR=0 $LLX=0.000000 $LLY=0.000000 $URX=-0.057800 $URY=-2.000000 $lvl=5
RhG156 Mmn0:s VSS!:11 7.500000 $licon_diff  $A=0.0578 $VC=0 $SAVL=0 $SAVC=0 $SI_A=0.0578 $COVER_DIR=0 $LLX=0.000000 $LLY=0.000000 $URX=-0.057800 $URY=-2.000000 $lvl=5
Rh_3_G157 VSS!:8 VSS!:7 1.666667 $licon_diff  $A=0.2601 $VC=0 $SAVL=0 $SAVC=0 $SI_A=0.2601 $COVER_DIR=0 $LLX=0.000000 $LLY=0.000000 $URX=-0.260100 $URY=-9.000000 $lvl=5
RjG158 VSS!:7 VSS!:14 16.888889 $mcon  $A=0.2601 $VC=0 $SAVL=0 $SAVC=0 $SI_A=0.2601 $COVER_DIR=0 $LLX=0.000000 $LLY=0.000000 $URX=-0.260100 $URY=-9.000000 $lvl=6
RmwG159 Mmn3:b VSS! 0.001000 $FOX $W=1000000 $SI_W=1000000 $TYPE=1 $DIR=0
RmwG160 Mmn3@1:b VSS! 0.001000 $FOX $W=1000000 $SI_W=1000000 $TYPE=1 $DIR=0
RmwG161 Mmn2:b VSS! 0.001000 $FOX $W=1000000 $SI_W=1000000 $TYPE=1 $DIR=0
RmwG162 Mmn2@1:b VSS! 0.001000 $FOX $W=1000000 $SI_W=1000000 $TYPE=1 $DIR=0
RmwG163 Mmn1:b VSS! 0.001000 $FOX $W=1000000 $SI_W=1000000 $TYPE=1 $DIR=0
RmwG164 Mmn1@1:s Mmn1:s 0.001000 $diff $W=1000000 $SI_W=1000000 $TYPE=1 $DIR=0
RmwG165 Mmn1@1:b VSS! 0.001000 $FOX $W=1000000 $SI_W=1000000 $TYPE=1 $DIR=0
RmwG166 Mmn0:b VSS! 0.001000 $FOX $W=1000000 $SI_W=1000000 $TYPE=1 $DIR=0
RmwG167 Mmn0@1:s Mmn0:s 0.001000 $diff $W=1000000 $SI_W=1000000 $TYPE=1 $DIR=0
RmwG168 Mmn0@1:b VSS! 0.001000 $FOX $W=1000000 $SI_W=1000000 $TYPE=1 $DIR=0
*
*|NET A1 1.99576e-15
*|P (A1 X 0 1.3950 1.8200) // $llx=1.3950 $lly=1.8200 $urx=1.3950 $ury=1.8200 $lvl=1
*|I (Mmp1:g Mmp1 g X 0 1.3350 3.0150) // $llx=1.3350 $lly=3.0150 $urx=1.3350 $ury=3.0150 $lvl=3
*|I (Mmp1@1:g Mmp1@1 g X 0 1.7650 3.0150) // $llx=1.7650 $lly=3.0150 $urx=1.7650 $ury=3.0150 $lvl=3
*|I (Mmn1:g Mmn1 g X 0 1.3350 0.7750) // $llx=1.3350 $lly=0.7750 $urx=1.3350 $ury=0.7750 $lvl=3
*|I (Mmn1@1:g Mmn1@1 g X 0 1.7650 0.7750) // $llx=1.7650 $lly=0.7750 $urx=1.7650 $ury=0.7750 $lvl=3
*|S (A1:15 1.7650 3.8950) // $llx=1.7650 $lly=3.8950 $urx=1.7650 $ury=3.8950 $lvl=3
*|S (A1:16 1.7650 1.6800) // $llx=1.7650 $lly=1.6800 $urx=1.7650 $ury=1.6800 $lvl=3
*|S (A1:17 1.5500 1.6800) // $llx=1.5500 $lly=1.6800 $urx=1.5500 $ury=1.6800 $lvl=3
*|S (A1:18 1.3350 1.6800) // $llx=1.3350 $lly=1.6800 $urx=1.3350 $ury=1.6800 $lvl=3
*|S (A1:19 1.3250 1.5150) // $llx=1.3250 $lly=1.5150 $urx=1.3250 $ury=1.5150 $lvl=3
*|S (A1:20 1.7750 1.5150) // $llx=1.7750 $lly=1.5150 $urx=1.7750 $ury=1.5150 $lvl=3
*|S (A1:21 1.7650 0.2450) // $llx=1.7650 $lly=0.2450 $urx=1.7650 $ury=0.2450 $lvl=3
*|S (A1:22 1.3250 1.8445) // $llx=1.3250 $lly=1.8445 $urx=1.3250 $ury=1.8445 $lvl=3
*|S (A1:23 1.3350 3.8950) // $llx=1.3350 $lly=3.8950 $urx=1.3350 $ury=3.8950 $lvl=3
*|S (A1:24 1.3350 0.2450) // $llx=1.3350 $lly=0.2450 $urx=1.3350 $ury=0.2450 $lvl=3
*|S (A1:25 1.5500 1.6800) // $llx=1.5500 $lly=1.6800 $urx=1.5500 $ury=1.6800 $lvl=2
*|S (A1:26 1.3800 1.6800) // $llx=1.3800 $lly=1.6800 $urx=1.3800 $ury=1.6800 $lvl=2
*|S (A1:27 1.3800 2.4650) // $llx=1.3800 $lly=2.4650 $urx=1.3800 $ury=2.4650 $lvl=1
*|S (A1:28 1.3800 1.6800) // $llx=1.3800 $lly=1.6800 $urx=1.3800 $ury=1.6800 $lvl=1
*|S (A1:29 1.3800 1.2250) // $llx=1.3800 $lly=1.2250 $urx=1.3800 $ury=1.2250 $lvl=1
CB1 Mmn1:g VSS! 3.34484e-18 $lvl=3
CB2 A1:27 VSS! 1.366e-17 $lvl=1
CB3 A1:29 VSS! 8.65724e-18 $lvl=1
CB4 A1:15 VSS! 2.81643e-18 $lvl=3
CB5 A1:23 VSS! 4.48583e-18 $lvl=3
CB6 A1:21 VSS! 4.10683e-18 $lvl=3
CB7 A1:25 VSS! 1.36533e-17 $lvl=2
CB8 A1:26 VSS! 9.7762e-18 $lvl=2
CB9 A1:17 VSS! 3.99413e-17 $lvl=3
CB10 A1:27 n2:10 6.13006e-18 $lvl1=1 $lvl2=2
CB11 A1:27 n2:6 5.69175e-18 $lvl1=1 $lvl2=2
CB12 A1:27 n2:18 4.70054e-18 $lvl1=1 $lvl2=1
CB13 A1:27 n2:15 2.42484e-18 $lvl1=1 $lvl2=2
CB14 A1:25 n2:15 2.39087e-18 $lvl1=2 $lvl2=2
CB15 A1:17 n2:14 2.09725e-18 $lvl1=3 $lvl2=2
CB16 A1:27 n2:20 2.08863e-18 $lvl1=1 $lvl2=1
CB17 A1:27 n2:14 1.97857e-18 $lvl1=1 $lvl2=2
CB18 A1:17 n2:15 1.8369e-18 $lvl1=3 $lvl2=2
CB19 A1:17 n2:6 1.74822e-18 $lvl1=3 $lvl2=2
CB20 A1:17 n2:10 1.69421e-18 $lvl1=3 $lvl2=2
CB21 A1:25 n2:10 1.54838e-18 $lvl1=2 $lvl2=2
CB22 A1:27 n2:16 1.38128e-18 $lvl1=1 $lvl2=1
CB23 A1:25 n2:14 1.35569e-18 $lvl1=2 $lvl2=2
CB24 A1:15 n2:15 1.22194e-18 $lvl1=3 $lvl2=2
CB25 A1:26 n2:10 1.06219e-18 $lvl1=2 $lvl2=2
CB26 A1:23 n2:10 1.00285e-18 $lvl1=3 $lvl2=2
CB27 A1:23 n2:6 2.42064e-16 $lvl1=3 $lvl2=2
CB28 A1:15 n2:14 2.51137e-16 $lvl1=3 $lvl2=2
CB29 A1:27 n0:23 6.05342e-18 $lvl1=1 $lvl2=1
CB30 A1:17 n0:14 5.20588e-18 $lvl1=3 $lvl2=2
CB31 A1:27 n0:24 4.36614e-18 $lvl1=1 $lvl2=1
CB32 A1:25 n0:14 4.22916e-18 $lvl1=2 $lvl2=2
CB33 A1:17 n0:6 2.84011e-18 $lvl1=3 $lvl2=2
CB34 A1:29 n0:7 2.61171e-18 $lvl1=1 $lvl2=2
CB35 A1:25 n0:23 2.49177e-18 $lvl1=2 $lvl2=1
CB36 A1:29 n0:6 2.35193e-18 $lvl1=1 $lvl2=2
CB37 A1:25 n0:6 1.7029e-18 $lvl1=2 $lvl2=2
CB38 A1:26 n0:6 1.41273e-18 $lvl1=2 $lvl2=2
CB39 A1:29 n0:26 1.31048e-18 $lvl1=1 $lvl2=1
CB40 A1:27 n0:26 1.30359e-18 $lvl1=1 $lvl2=1
CB41 A1:29 n0:14 1.13497e-18 $lvl1=1 $lvl2=2
CB42 A1:25 n0:12 1.07359e-18 $lvl1=2 $lvl2=2
CB43 A1:26 n0:23 8.92756e-19 $lvl1=2 $lvl2=1
CB44 A1:26 n0:24 8.81699e-19 $lvl1=2 $lvl2=1
CB45 A1:29 n0:12 8.52821e-19 $lvl1=1 $lvl2=2
CB46 A1:27 n0:21 8.29554e-19 $lvl1=1 $lvl2=1
CB47 A1:17 n0:23 8.09196e-19 $lvl1=3 $lvl2=1
CB48 A1:17 Mmn1@1:d 7.70943e-19 $lvl1=3 $lvl2=4
CB49 Mmn1:g n0:14 7.26924e-19 $lvl1=3 $lvl2=2
CB50 A1:29 n0:23 1.58214e-17 $lvl1=1 $lvl2=1
CB51 A1:21 n0:14 1.2868e-16 $lvl1=3 $lvl2=2
CB52 A1:29 n0:24 4.69561e-17 $lvl1=1 $lvl2=1
CB53 Mmn1:g n0:6 1.30328e-16 $lvl1=3 $lvl2=2
CB54 A1:21 VSS!:4 9.00642e-18 $lvl1=3 $lvl2=2
CB55 Mmn1:g VSS!:4 6.36738e-18 $lvl1=3 $lvl2=2
CB56 A1:17 VSS!:1 6.24543e-18 $lvl1=3 $lvl2=2
CB57 A1:25 VSS!:1 4.69445e-18 $lvl1=2 $lvl2=2
CB58 A1:29 VSS!:1 3.91529e-18 $lvl1=1 $lvl2=2
CB59 A1:27 VSS!:14 2.36663e-18 $lvl1=1 $lvl2=1
CB60 A1:29 VSS!:14 2.0778e-18 $lvl1=1 $lvl2=1
CB61 A1:21 VSS!:1 1.2788e-16 $lvl1=3 $lvl2=2
CB62 Mmn1:g VSS!:1 1.2498e-16 $lvl1=3 $lvl2=2
CB63 A1:23 VDD!:4 8.28654e-18 $lvl1=3 $lvl2=2
CB64 A1:15 VDD!:4 8.1894e-18 $lvl1=3 $lvl2=2
CB65 A1:27 VDD!:3 4.22218e-18 $lvl1=1 $lvl2=2
CB66 A1:17 VDD! 4.15465e-18 $lvl1=3 $lvl2=1
CB67 A1:29 VDD! 3.30549e-18 $lvl1=1 $lvl2=1
CB68 A1:27 VDD!:23 2.4069e-18 $lvl1=1 $lvl2=1
CB69 A1:17 VDD!:12 1.3266e-18 $lvl1=3 $lvl2=2
CB70 A1:15 VDD!:12 1.24459e-18 $lvl1=3 $lvl2=2
CB71 A1:27 VDD! 1.02248e-17 $lvl1=1 $lvl2=1
CB72 A1:27 Y:5 6.87928e-18 $lvl1=1 $lvl2=2
CB73 A1:27 Y:1 4.54476e-18 $lvl1=1 $lvl2=2
CB74 A1:25 Y:5 2.7541e-18 $lvl1=2 $lvl2=2
CB75 A1:27 Y:25 2.75372e-18 $lvl1=1 $lvl2=1
CB76 A1:17 Y:5 2.64911e-18 $lvl1=3 $lvl2=2
CB77 A1:17 Y:1 2.53799e-18 $lvl1=3 $lvl2=2
CB78 A1:27 Y:4 2.46708e-18 $lvl1=1 $lvl2=2
CB79 A1:26 Y:5 1.29892e-18 $lvl1=2 $lvl2=2
CB80 A1:25 Y:1 1.05548e-18 $lvl1=2 $lvl2=2
CB81 A1:25 Y:26 1.00608e-18 $lvl1=2 $lvl2=1
CB82 A1:15 Y:1 2.51008e-16 $lvl1=3 $lvl2=2
CB83 A1:23 Y:1 2.52757e-16 $lvl1=3 $lvl2=2
CB84 A1:27 Y:26 5.34095e-17 $lvl1=1 $lvl2=1
CB85 A1:27 B0:27 4.74253e-18 $lvl1=1 $lvl2=1
CB86 A1:27 B0:29 2.06051e-18 $lvl1=1 $lvl2=1
CB87 A1:25 B0:27 1.84255e-18 $lvl1=2 $lvl2=1
CB88 A1:17 B0:17 1.55828e-18 $lvl1=3 $lvl2=3
CB89 A1:29 B0:29 1.08238e-18 $lvl1=1 $lvl2=1
CB90 A1:25 B0:29 1.04435e-18 $lvl1=2 $lvl2=1
ReB20 A1:27 A1 0.310096 $metal1  $L=0.645 $W=0.260000 $SI_W=0.26 $TYPE=10 $DIR=1 $LLX=1.250000 $LLY=1.820000 $URX=1.510000 $URY=2.465000 $lvl=1
ReB21 A1 A1:28 0.067308 $metal1  $L=0.14 $W=0.260000 $SI_W=0.26 $TYPE=10 $DIR=1 $LLX=1.265000 $LLY=1.680000 $URX=1.525000 $URY=1.820000 $lvl=1
ReB22 A1:28 A1:29 0.218750 $metal1  $L=0.455 $W=0.260000 $SI_W=0.26 $TYPE=10 $DIR=1 $LLX=1.250000 $LLY=1.225000 $URX=1.510000 $URY=1.680000 $lvl=1
RfB23 A1:25 A1:26 12.800000 $li  $L=0.17 $W=0.170000 $SI_W=0.17 $TYPE=10 $DIR=0 $LLX=1.380000 $LLY=1.595000 $URX=1.550000 $URY=1.765000 $lvl=2
RgB24 A1:15 Mmp1@1:g 282.773346 $poly  $L=0.88 $W=0.150000 $SI_W=0.15 $TYPE=10 $DIR=1 $LLX=1.690000 $LLY=3.015000 $URX=1.840000 $URY=3.895000 $lvl=3
RgB25 Mmp1@1:g A1:16 423.458862 $poly  $L=1.33475 $W=0.150000 $SI_W=0.15 $TYPE=10 $DIR=1 $LLX=1.690000 $LLY=1.680000 $URX=1.840000 $URY=3.015000 $lvl=3
RgB26 A1:16 A1:17 31.439547 $poly  $L=0.21525 $W=0.330000 $SI_W=0.33 $TYPE=10 $DIR=0 $LLX=1.550000 $LLY=1.515000 $URX=1.765000 $URY=1.845000 $lvl=3
RgB27 A1:17 A1:18 31.366514 $poly  $L=0.21475 $W=0.330000 $SI_W=0.33 $TYPE=10 $DIR=0 $LLX=1.335000 $LLY=1.515000 $URX=1.550000 $URY=1.845000 $lvl=3
RgB28 A1:18 A1:19 46.784668 $poly  $L=0.16475 $W=0.170000 $SI_W=0.17 $TYPE=10 $DIR=1 $LLX=1.240000 $LLY=1.515000 $URX=1.410000 $URY=1.680000 $lvl=3
RgB29 A1:19 Mmn1:g 237.857559 $poly  $L=0.74 $W=0.150000 $SI_W=0.15 $TYPE=10 $DIR=1 $LLX=1.260000 $LLY=0.775000 $URX=1.410000 $URY=1.515000 $lvl=3
RgB30 A1:16 A1:20 46.784668 $poly  $L=0.16475 $W=0.170000 $SI_W=0.17 $TYPE=10 $DIR=1 $LLX=1.690000 $LLY=1.515000 $URX=1.860000 $URY=1.680000 $lvl=3
RgB31 A1:20 Mmn1@1:g 237.857559 $poly  $L=0.74 $W=0.150000 $SI_W=0.15 $TYPE=10 $DIR=1 $LLX=1.690000 $LLY=0.775000 $URX=1.840000 $URY=1.515000 $lvl=3
RgB32 Mmn1@1:g A1:21 170.306671 $poly  $L=0.53 $W=0.150000 $SI_W=0.15 $TYPE=10 $DIR=1 $LLX=1.690000 $LLY=0.245000 $URX=1.840000 $URY=0.775000 $lvl=3
RgB33 A1:18 A1:22 46.642902 $poly  $L=0.16425 $W=0.170000 $SI_W=0.17 $TYPE=10 $DIR=1 $LLX=1.240000 $LLY=1.680500 $URX=1.410000 $URY=1.844500 $lvl=3
RgB34 A1:22 Mmp1:g 376.030884 $poly  $L=1.17 $W=0.150000 $SI_W=0.15 $TYPE=10 $DIR=1 $LLX=1.260000 $LLY=1.844500 $URX=1.410000 $URY=3.014500 $lvl=3
RgB35 Mmp1:g A1:23 282.773346 $poly  $L=0.88 $W=0.150000 $SI_W=0.15 $TYPE=10 $DIR=1 $LLX=1.260000 $LLY=3.015000 $URX=1.410000 $URY=3.895000 $lvl=3
RgB36 Mmn1:g A1:24 170.306671 $poly  $L=0.53 $W=0.150000 $SI_W=0.15 $TYPE=10 $DIR=1 $LLX=1.260000 $LLY=0.245000 $URX=1.410000 $URY=0.775000 $lvl=3
RjB37 A1:26 A1:28 152.000000 $mcon  $L=0.17 $W=0.17 $A=0.0289 $VC=0 $SAVL=0 $SAVC=0 $SI_A=0.0289 $COVER_DIR=0 $LLX=0.000000 $LLY=0.000000 $URX=0.170000 $URY=0.170000 $lvl=6
RiB38 A1:17 A1:25 7.500000 $licon  $A=0.0578 $VC=0 $SAVL=0 $SAVC=0 $SI_A=0.0578 $COVER_DIR=0 $LLX=0.000000 $LLY=0.000000 $URX=-0.057800 $URY=-2.000000 $lvl=7
*
*|NET A0 1.99147e-15
*|P (A0 X 0 0.4750 1.7900) // $llx=0.4750 $lly=1.7900 $urx=0.4750 $ury=1.7900 $lvl=1
*|I (Mmp0:g Mmp0 g X 0 0.4750 3.0150) // $llx=0.4750 $lly=3.0150 $urx=0.4750 $ury=3.0150 $lvl=3
*|I (Mmp0@1:g Mmp0@1 g X 0 0.9050 3.0150) // $llx=0.9050 $lly=3.0150 $urx=0.9050 $ury=3.0150 $lvl=3
*|I (Mmn0:g Mmn0 g X 0 0.4750 0.7750) // $llx=0.4750 $lly=0.7750 $urx=0.4750 $ury=0.7750 $lvl=3
*|I (Mmn0@1:g Mmn0@1 g X 0 0.9050 0.7750) // $llx=0.9050 $lly=0.7750 $urx=0.9050 $ury=0.7750 $lvl=3
*|S (A0:15 0.9050 3.8950) // $llx=0.9050 $lly=3.8950 $urx=0.9050 $ury=3.8950 $lvl=3
*|S (A0:16 0.9050 1.4700) // $llx=0.9050 $lly=1.4700 $urx=0.9050 $ury=1.4700 $lvl=3
*|S (A0:17 0.6900 1.4700) // $llx=0.6900 $lly=1.4700 $urx=0.6900 $ury=1.4700 $lvl=3
*|S (A0:18 0.4750 1.4700) // $llx=0.4750 $lly=1.4700 $urx=0.4750 $ury=1.4700 $lvl=3
*|S (A0:19 0.4650 1.3050) // $llx=0.4650 $lly=1.3050 $urx=0.4650 $ury=1.3050 $lvl=3
*|S (A0:20 0.9150 1.3050) // $llx=0.9150 $lly=1.3050 $urx=0.9150 $ury=1.3050 $lvl=3
*|S (A0:21 0.9050 0.2450) // $llx=0.9050 $lly=0.2450 $urx=0.9050 $ury=0.2450 $lvl=3
*|S (A0:22 0.4650 1.6345) // $llx=0.4650 $lly=1.6345 $urx=0.4650 $ury=1.6345 $lvl=3
*|S (A0:23 0.4750 3.8950) // $llx=0.4750 $lly=3.8950 $urx=0.4750 $ury=3.8950 $lvl=3
*|S (A0:24 0.4750 0.2450) // $llx=0.4750 $lly=0.2450 $urx=0.4750 $ury=0.2450 $lvl=3
*|S (A0:25 0.6900 1.4700) // $llx=0.6900 $lly=1.4700 $urx=0.6900 $ury=1.4700 $lvl=2
*|S (A0:26 0.4600 1.4700) // $llx=0.4600 $lly=1.4700 $urx=0.4600 $ury=1.4700 $lvl=2
*|S (A0:27 0.4600 2.4600) // $llx=0.4600 $lly=2.4600 $urx=0.4600 $ury=2.4600 $lvl=1
*|S (A0:28 0.4600 1.4700) // $llx=0.4600 $lly=1.4700 $urx=0.4600 $ury=1.4700 $lvl=1
*|S (A0:29 0.4600 1.2200) // $llx=0.4600 $lly=1.2200 $urx=0.4600 $ury=1.2200 $lvl=1
CA1 Mmn0@1:g VSS! 4.25405e-18 $lvl=3
CA2 Mmn0:g VSS! 2.48726e-18 $lvl=3
CA3 A0:27 VSS! 1.5618e-17 $lvl=1
CA4 A0:29 VSS! 1.07904e-17 $lvl=1
CA5 A0:15 VSS! 2.82816e-18 $lvl=3
CA6 A0:23 VSS! 2.91696e-18 $lvl=3
CA7 A0:25 VSS! 8.70544e-18 $lvl=2
CA8 A0:26 VSS! 6.55778e-18 $lvl=2
CA9 A0:17 VSS! 2.96793e-17 $lvl=3
CA10 A0:27 n2:5 8.26944e-18 $lvl1=1 $lvl2=2
CA11 A0:27 n2:18 6.65419e-18 $lvl1=1 $lvl2=1
CA12 A0:27 n2:6 2.52466e-18 $lvl1=1 $lvl2=2
CA13 A0:27 n2:10 2.06244e-18 $lvl1=1 $lvl2=2
CA14 A0:17 n2 1.77093e-18 $lvl1=3 $lvl2=2
CA15 A0:17 n2:5 1.31316e-18 $lvl1=3 $lvl2=2
CA16 A0:15 n2:10 1.30501e-18 $lvl1=3 $lvl2=2
CA17 A0:23 n2:5 1.11284e-18 $lvl1=3 $lvl2=2
CA18 A0:25 n2:5 1.09232e-18 $lvl1=2 $lvl2=2
CA19 A0:29 n2:20 9.49751e-19 $lvl1=1 $lvl2=1
CA20 A0:29 n2 9.26224e-19 $lvl1=1 $lvl2=2
CA21 A0:17 n2:6 9.12749e-19 $lvl1=3 $lvl2=2
CA22 A0:25 n2 8.99548e-19 $lvl1=2 $lvl2=2
CA23 A0:17 n2:10 7.93318e-19 $lvl1=3 $lvl2=2
CA24 A0:15 n2:6 2.4802e-16 $lvl1=3 $lvl2=2
CA25 A0:23 n2 2.5091e-16 $lvl1=3 $lvl2=2
CA26 A0:27 n2 1.31747e-17 $lvl1=1 $lvl2=2
CA27 A0:27 n2:20 1.29222e-17 $lvl1=1 $lvl2=1
CA28 A0:17 n0 9.4714e-18 $lvl1=3 $lvl2=2
CA29 A0:25 n0 8.09418e-18 $lvl1=2 $lvl2=2
CA30 A0:25 n0:6 7.97182e-18 $lvl1=2 $lvl2=2
CA31 A0:17 n0:6 7.61431e-18 $lvl1=3 $lvl2=2
CA32 A0:26 n0 5.20606e-18 $lvl1=2 $lvl2=2
CA33 A0:27 n0:26 3.85745e-18 $lvl1=1 $lvl2=1
CA34 A0:29 n0 2.93901e-18 $lvl1=1 $lvl2=2
CA35 A0:25 n0:24 2.67847e-18 $lvl1=2 $lvl2=1
CA36 A0:29 n0:2 2.60049e-18 $lvl1=1 $lvl2=2
CA37 A0:26 n0:26 2.44672e-18 $lvl1=2 $lvl2=1
CA38 A0:27 n0:24 2.26196e-18 $lvl1=1 $lvl2=1
CA39 A0:26 n0:2 1.70205e-18 $lvl1=2 $lvl2=2
CA40 A0:25 n0:7 1.61902e-18 $lvl1=2 $lvl2=2
CA41 A0:25 n0:26 1.58682e-18 $lvl1=2 $lvl2=1
CA42 A0:27 n0 1.56021e-18 $lvl1=1 $lvl2=2
CA43 A0:17 Mmn0:d 1.42707e-18 $lvl1=3 $lvl2=4
CA44 A0:26 n0:24 1.16499e-18 $lvl1=2 $lvl2=1
CA45 A0:25 n0:2 1.08532e-18 $lvl1=2 $lvl2=2
CA46 A0:17 Mmn1:d 1.02584e-18 $lvl1=3 $lvl2=4
CA47 A0:29 n0:24 1.31942e-17 $lvl1=1 $lvl2=1
CA48 A0:29 n0:26 5.15194e-17 $lvl1=1 $lvl2=1
CA49 Mmn0:g n0 1.29601e-16 $lvl1=3 $lvl2=2
CA50 Mmn0@1:g n0:6 1.28087e-16 $lvl1=3 $lvl2=2
CA51 Mmn0:g VSS!:5 8.20418e-18 $lvl1=3 $lvl2=2
CA52 Mmn0@1:g VSS!:5 7.5294e-18 $lvl1=3 $lvl2=2
CA53 A0:26 VSS!:11 4.37945e-18 $lvl1=2 $lvl2=2
CA54 A0:17 Mmn0:s 2.03912e-18 $lvl1=3 $lvl2=4
CA55 A0:29 VSS!:14 1.95882e-18 $lvl1=1 $lvl2=1
CA56 A0:29 VSS!:11 1.94733e-18 $lvl1=1 $lvl2=2
CA57 A0:27 VSS!:14 1.82925e-18 $lvl1=1 $lvl2=1
CA58 Mmn0@1:g VSS!:11 1.24929e-16 $lvl1=3 $lvl2=2
CA59 A0:17 VSS!:11 1.36782e-17 $lvl1=3 $lvl2=2
CA60 Mmn0:g VSS!:11 1.2942e-16 $lvl1=3 $lvl2=2
CA61 A0:25 VSS!:11 1.12375e-17 $lvl1=2 $lvl2=2
CA62 A0:15 VDD!:4 7.90553e-18 $lvl1=3 $lvl2=2
CA63 A0:23 VDD!:4 7.56242e-18 $lvl1=3 $lvl2=2
CA64 A0:17 VDD! 6.42978e-18 $lvl1=3 $lvl2=1
CA65 A0:25 VDD! 3.09647e-18 $lvl1=2 $lvl2=1
CA66 A0:27 VDD!:23 2.9099e-18 $lvl1=1 $lvl2=1
CA67 A0:17 VDD!:3 2.57913e-18 $lvl1=3 $lvl2=2
CA68 A0:26 VDD! 2.0686e-18 $lvl1=2 $lvl2=1
CA69 A0:27 VDD! 2.46799e-17 $lvl1=1 $lvl2=1
CA70 A0:23 VDD!:3 2.5284e-16 $lvl1=3 $lvl2=2
CA71 A0:29 VDD! 1.07897e-17 $lvl1=1 $lvl2=1
CA72 A0:15 VDD!:3 2.52099e-16 $lvl1=3 $lvl2=2
CA73 A0:27 VDD!:3 1.54114e-17 $lvl1=1 $lvl2=2
CA74 A0:17 A1:17 9.13242e-18 $lvl1=3 $lvl2=3
CA75 A0:25 A1:25 7.34426e-18 $lvl1=2 $lvl2=2
CA76 A0:29 A1:27 5.6277e-18 $lvl1=1 $lvl2=1
CA77 A0:29 A1:29 3.99363e-18 $lvl1=1 $lvl2=1
CA78 A0:25 A1:26 3.92856e-18 $lvl1=2 $lvl2=2
CA79 A0:25 A1:17 3.42932e-18 $lvl1=2 $lvl2=3
CA80 A0:25 A1:29 2.98479e-18 $lvl1=2 $lvl2=1
CA81 A0:25 A1:27 2.93718e-18 $lvl1=2 $lvl2=1
CA82 A0:17 A1:25 2.62178e-18 $lvl1=3 $lvl2=2
CA83 A0:27 A1:29 2.21228e-18 $lvl1=1 $lvl2=1
CA84 A0:17 Mmn1:g 2.13011e-18 $lvl1=3 $lvl2=3
CA85 A0:15 A1:17 1.21102e-18 $lvl1=3 $lvl2=3
CA86 A0:27 A1:26 1.00635e-18 $lvl1=1 $lvl2=2
CA87 A0:27 A1:25 9.76663e-19 $lvl1=1 $lvl2=2
CA88 A0:27 A1:27 1.82477e-17 $lvl1=1 $lvl2=1
ReA1 A0:27 A0 0.322115 $metal1  $L=0.67 $W=0.260000 $SI_W=0.26 $TYPE=10 $DIR=1 $LLX=0.330000 $LLY=1.790000 $URX=0.590000 $URY=2.460000 $lvl=1
ReA2 A0 A0:28 0.153846 $metal1  $L=0.32 $W=0.260000 $SI_W=0.26 $TYPE=10 $DIR=1 $LLX=0.330000 $LLY=1.470000 $URX=0.590000 $URY=1.790000 $lvl=1
ReA3 A0:28 A0:29 0.120192 $metal1  $L=0.25 $W=0.260000 $SI_W=0.26 $TYPE=10 $DIR=1 $LLX=0.330000 $LLY=1.220000 $URX=0.590000 $URY=1.470000 $lvl=1
RfA4 A0:25 A0:26 17.317646 $li  $L=0.23 $W=0.170000 $SI_W=0.17 $TYPE=10 $DIR=0 $LLX=0.460000 $LLY=1.385000 $URX=0.690000 $URY=1.555000 $lvl=2
RgA5 A0:15 Mmp0@1:g 282.773346 $poly  $L=0.88 $W=0.150000 $SI_W=0.15 $TYPE=10 $DIR=1 $LLX=0.830000 $LLY=3.015000 $URX=0.980000 $URY=3.895000 $lvl=3
RgA6 Mmp0@1:g A0:16 490.938843 $poly  $L=1.54475 $W=0.150000 $SI_W=0.15 $TYPE=10 $DIR=1 $LLX=0.830000 $LLY=1.470000 $URX=0.980000 $URY=3.015000 $lvl=3
RgA7 A0:16 A0:17 31.439547 $poly  $L=0.21525 $W=0.330000 $SI_W=0.33 $TYPE=10 $DIR=0 $LLX=0.690000 $LLY=1.305000 $URX=0.905000 $URY=1.635000 $lvl=3
RgA8 A0:17 A0:18 31.366514 $poly  $L=0.21475 $W=0.330000 $SI_W=0.33 $TYPE=10 $DIR=0 $LLX=0.475000 $LLY=1.305000 $URX=0.690000 $URY=1.635000 $lvl=3
RgA9 A0:18 A0:19 46.784668 $poly  $L=0.16475 $W=0.170000 $SI_W=0.17 $TYPE=10 $DIR=1 $LLX=0.380000 $LLY=1.305000 $URX=0.550000 $URY=1.470000 $lvl=3
RgA10 A0:19 Mmn0:g 170.377548 $poly  $L=0.53 $W=0.150000 $SI_W=0.15 $TYPE=10 $DIR=1 $LLX=0.400000 $LLY=0.775000 $URX=0.550000 $URY=1.305000 $lvl=3
RgA11 A0:16 A0:20 46.784668 $poly  $L=0.16475 $W=0.170000 $SI_W=0.17 $TYPE=10 $DIR=1 $LLX=0.830000 $LLY=1.305000 $URX=1.000000 $URY=1.470000 $lvl=3
RgA12 A0:20 Mmn0@1:g 170.377548 $poly  $L=0.53 $W=0.150000 $SI_W=0.15 $TYPE=10 $DIR=1 $LLX=0.830000 $LLY=0.775000 $URX=0.980000 $URY=1.305000 $lvl=3
RgA13 Mmn0@1:g A0:21 170.306671 $poly  $L=0.53 $W=0.150000 $SI_W=0.15 $TYPE=10 $DIR=1 $LLX=0.830000 $LLY=0.245000 $URX=0.980000 $URY=0.775000 $lvl=3
RgA14 A0:18 A0:22 46.642902 $poly  $L=0.16425 $W=0.170000 $SI_W=0.17 $TYPE=10 $DIR=1 $LLX=0.380000 $LLY=1.470500 $URX=0.550000 $URY=1.634500 $lvl=3
RgA15 A0:22 Mmp0:g 443.510895 $poly  $L=1.38 $W=0.150000 $SI_W=0.15 $TYPE=10 $DIR=1 $LLX=0.400000 $LLY=1.634500 $URX=0.550000 $URY=3.014500 $lvl=3
RgA16 Mmp0:g A0:23 282.773346 $poly  $L=0.88 $W=0.150000 $SI_W=0.15 $TYPE=10 $DIR=1 $LLX=0.400000 $LLY=3.015000 $URX=0.550000 $URY=3.895000 $lvl=3
RgA17 Mmn0:g A0:24 170.306671 $poly  $L=0.53 $W=0.150000 $SI_W=0.15 $TYPE=10 $DIR=1 $LLX=0.400000 $LLY=0.245000 $URX=0.550000 $URY=0.775000 $lvl=3
RjA18 A0:26 A0:28 152.000000 $mcon  $L=0.17 $W=0.17 $A=0.0289 $VC=0 $SAVL=0 $SAVC=0 $SI_A=0.0289 $COVER_DIR=0 $LLX=0.000000 $LLY=0.000000 $URX=0.170000 $URY=0.170000 $lvl=6
RiA19 A0:17 A0:25 7.500000 $licon  $A=0.0578 $VC=0 $SAVL=0 $SAVC=0 $SI_A=0.0578 $COVER_DIR=0 $LLX=0.000000 $LLY=0.000000 $URX=-0.057800 $URY=-2.000000 $lvl=7
*
*|NET n2 2.27582e-15
*|I (Mmp1:s Mmp1 s X 0 1.2595 3.0150) // $llx=1.2595 $lly=3.0150 $urx=1.2595 $ury=3.0150 $lvl=4
*|I (Mmp1@1:s Mmp1@1 s X 0 1.8405 3.0150) // $llx=1.8405 $lly=3.0150 $urx=1.8405 $ury=3.0150 $lvl=4
*|I (Mmp0:d Mmp0 d X 0 0.3995 3.0150) // $llx=0.3995 $lly=3.0150 $urx=0.3995 $ury=3.0150 $lvl=4
*|I (Mmp0@1:d Mmp0@1 d X 0 0.9805 3.0150) // $llx=0.9805 $lly=3.0150 $urx=0.9805 $ury=3.0150 $lvl=4
*|S (n2 0.2600 3.7450) // $llx=0.2600 $lly=3.7450 $urx=0.2600 $ury=3.7450 $lvl=2
*|S (n2:2 0.2600 3.1900) // $llx=0.2600 $lly=3.1900 $urx=0.2600 $ury=3.1900 $lvl=2
*|S (n2:4 0.2600 3.0150) // $llx=0.2600 $lly=3.0150 $urx=0.2600 $ury=3.0150 $lvl=2
*|S (n2:5 0.2600 2.2850) // $llx=0.2600 $lly=2.2850 $urx=0.2600 $ury=2.2850 $lvl=2
*|S (n2:6 1.1200 3.7450) // $llx=1.1200 $lly=3.7450 $urx=1.1200 $ury=3.7450 $lvl=2
*|S (n2:7 1.1200 3.1900) // $llx=1.1200 $lly=3.1900 $urx=1.1200 $ury=3.1900 $lvl=2
*|S (n2:9 1.1200 3.0150) // $llx=1.1200 $lly=3.0150 $urx=1.1200 $ury=3.0150 $lvl=2
*|S (n2:10 1.1200 2.2850) // $llx=1.1200 $lly=2.2850 $urx=1.1200 $ury=2.2850 $lvl=2
*|S (n2:11 1.9800 3.7450) // $llx=1.9800 $lly=3.7450 $urx=1.9800 $ury=3.7450 $lvl=2
*|S (n2:12 1.9800 3.1900) // $llx=1.9800 $lly=3.1900 $urx=1.9800 $ury=3.1900 $lvl=2
*|S (n2:14 1.9800 3.0150) // $llx=1.9800 $lly=3.0150 $urx=1.9800 $ury=3.0150 $lvl=2
*|S (n2:15 1.9800 2.2850) // $llx=1.9800 $lly=2.2850 $urx=1.9800 $ury=2.2850 $lvl=2
*|S (n2:16 2.1250 3.1900) // $llx=2.1250 $lly=3.1900 $urx=2.1250 $ury=3.1900 $lvl=1
*|S (n2:17 1.9800 3.1900) // $llx=1.9800 $lly=3.1900 $urx=1.9800 $ury=3.1900 $lvl=1
*|S (n2:18 1.1200 3.1900) // $llx=1.1200 $lly=3.1900 $urx=1.1200 $ury=3.1900 $lvl=1
*|S (n2:19 0.2600 3.1900) // $llx=0.2600 $lly=3.1900 $urx=0.2600 $ury=3.1900 $lvl=1
*|S (n2:20 0.1150 3.1900) // $llx=0.1150 $lly=3.1900 $urx=0.1150 $ury=3.1900 $lvl=1
CJ1 Mmp0:d VSS! 3.09264e-18 $lvl=4
CJ2 Mmp1@1:s VSS! 2.31663e-18 $lvl=4
CJ3 Mmp1:s VSS! 1.9906e-18 $lvl=4
CJ4 n2:18 VSS! 6.12889e-18 $lvl=1
CJ5 n2:16 VSS! 7.5444e-18 $lvl=1
CJ6 n2:20 VSS! 8.27586e-18 $lvl=1
CJ7 n2:14 VSS! 8.68144e-18 $lvl=2
CJ8 n2:15 VSS! 8.00996e-18 $lvl=2
CJ9 n2:6 VSS! 5.74046e-18 $lvl=2
CJ10 n2:10 VSS! 4.07492e-18 $lvl=2
CJ11 n2:5 VSS! 5.16345e-18 $lvl=2
CJ12 n2:2 VSS! 1.49391e-18 $lvl=2
CJ13 n2:7 VSS! 2.06239e-18 $lvl=2
CJ14 n2:12 VSS! 1.47422e-18 $lvl=2
CJ15 n2 VSS! 7.59107e-18 $lvl=2
ReJ214 n2:16 n2:17 0.078804 $metal1  $L=0.145 $W=0.230000 $SI_W=0.23 $TYPE=10 $DIR=0 $LLX=1.980000 $LLY=3.075000 $URX=2.125000 $URY=3.305000 $lvl=1
ReJ215 n2:17 n2:18 0.467391 $metal1  $L=0.86 $W=0.230000 $SI_W=0.23 $TYPE=10 $DIR=0 $LLX=1.120000 $LLY=3.075000 $URX=1.980000 $URY=3.305000 $lvl=1
ReJ216 n2:18 n2:19 0.467391 $metal1  $L=0.86 $W=0.230000 $SI_W=0.23 $TYPE=10 $DIR=0 $LLX=0.260000 $LLY=3.075000 $URX=1.120000 $URY=3.305000 $lvl=1
ReJ217 n2:19 n2:20 0.078804 $metal1  $L=0.145 $W=0.230000 $SI_W=0.23 $TYPE=10 $DIR=0 $LLX=0.115000 $LLY=3.075000 $URX=0.260000 $URY=3.305000 $lvl=1
RfJ218 n2 n2:2 41.788235 $li  $L=0.555 $W=0.170000 $SI_W=0.17 $TYPE=10 $DIR=1 $LLX=0.175000 $LLY=3.190000 $URX=0.345000 $URY=3.745000 $lvl=2
RfJ219 n2:2 n2:4 13.176471 $li  $L=0.175 $W=0.170000 $SI_W=0.17 $TYPE=10 $DIR=1 $LLX=0.175000 $LLY=3.015000 $URX=0.345000 $URY=3.190000 $lvl=2
RfJ220 n2:4 n2:5 54.964703 $li  $L=0.73 $W=0.170000 $SI_W=0.17 $TYPE=10 $DIR=1 $LLX=0.175000 $LLY=2.285000 $URX=0.345000 $URY=3.015000 $lvl=2
RfJ221 n2:6 n2:7 41.788235 $li  $L=0.555 $W=0.170000 $SI_W=0.17 $TYPE=10 $DIR=1 $LLX=1.035000 $LLY=3.190000 $URX=1.205000 $URY=3.745000 $lvl=2
RfJ222 n2:7 n2:9 13.176471 $li  $L=0.175 $W=0.170000 $SI_W=0.17 $TYPE=10 $DIR=1 $LLX=1.035000 $LLY=3.015000 $URX=1.205000 $URY=3.190000 $lvl=2
RfJ223 n2:9 n2:10 54.964703 $li  $L=0.73 $W=0.170000 $SI_W=0.17 $TYPE=10 $DIR=1 $LLX=1.035000 $LLY=2.285000 $URX=1.205000 $URY=3.015000 $lvl=2
RfJ224 n2:11 n2:12 41.788235 $li  $L=0.555 $W=0.170000 $SI_W=0.17 $TYPE=10 $DIR=1 $LLX=1.895000 $LLY=3.190000 $URX=2.065000 $URY=3.745000 $lvl=2
RfJ225 n2:12 n2:14 13.176471 $li  $L=0.175 $W=0.170000 $SI_W=0.17 $TYPE=10 $DIR=1 $LLX=1.895000 $LLY=3.015000 $URX=2.065000 $URY=3.190000 $lvl=2
RfJ226 n2:14 n2:15 54.964703 $li  $L=0.73 $W=0.170000 $SI_W=0.17 $TYPE=10 $DIR=1 $LLX=1.895000 $LLY=2.285000 $URX=2.065000 $URY=3.015000 $lvl=2
Rh_2_J227 Mmp0:d n2:4 3.750000 $licon_diff  $A=0.1156 $VC=0 $SAVL=0 $SAVC=0 $SI_A=0.1156 $COVER_DIR=0 $LLX=0.000000 $LLY=0.000000 $URX=-0.115600 $URY=-4.000000 $lvl=5
Rh_2_J228 Mmp1:s n2:9 3.750000 $licon_diff  $A=0.1156 $VC=0 $SAVL=0 $SAVC=0 $SI_A=0.1156 $COVER_DIR=0 $LLX=0.000000 $LLY=0.000000 $URX=-0.115600 $URY=-4.000000 $lvl=5
Rh_2_J229 Mmp1@1:s n2:14 3.750000 $licon_diff  $A=0.1156 $VC=0 $SAVL=0 $SAVC=0 $SI_A=0.1156 $COVER_DIR=0 $LLX=0.000000 $LLY=0.000000 $URX=-0.115600 $URY=-4.000000 $lvl=5
RjJ230 n2:12 n2:17 152.000000 $mcon  $L=0.17 $W=0.17 $A=0.0289 $VC=0 $SAVL=0 $SAVC=0 $SI_A=0.0289 $COVER_DIR=0 $LLX=0.000000 $LLY=0.000000 $URX=0.170000 $URY=0.170000 $lvl=6
RjJ231 n2:7 n2:18 152.000000 $mcon  $L=0.17 $W=0.17 $A=0.0289 $VC=0 $SAVL=0 $SAVC=0 $SI_A=0.0289 $COVER_DIR=0 $LLX=0.000000 $LLY=0.000000 $URX=0.170000 $URY=0.170000 $lvl=6
RjJ232 n2:2 n2:19 152.000000 $mcon  $L=0.17 $W=0.17 $A=0.0289 $VC=0 $SAVL=0 $SAVC=0 $SI_A=0.0289 $COVER_DIR=0 $LLX=0.000000 $LLY=0.000000 $URX=0.170000 $URY=0.170000 $lvl=6
RmwJ233 Mmp0@1:d Mmp1:s 0.001000 $diff $W=1000000 $SI_W=1000000 $TYPE=1 $DIR=0
*
*|NET Y 3.72924e-15
*|P (Y X 0 3.6950 1.8900) // $llx=3.6950 $lly=1.8900 $urx=3.6950 $ury=1.8900 $lvl=1
*|I (Mmp3:d Mmp3 d X 0 3.6505 3.0150) // $llx=3.6505 $lly=3.0150 $urx=3.6505 $ury=3.0150 $lvl=4
*|I (Mmp3@1:d Mmp3@1 d X 0 3.9295 3.0150) // $llx=3.9295 $lly=3.0150 $urx=3.9295 $ury=3.0150 $lvl=4
*|I (Mmp2:d Mmp2 d X 0 2.7905 3.0150) // $llx=2.7905 $lly=3.0150 $urx=2.7905 $ury=3.0150 $lvl=4
*|I (Mmp2@1:d Mmp2@1 d X 0 3.0695 3.0150) // $llx=3.0695 $lly=3.0150 $urx=3.0695 $ury=3.0150 $lvl=4
*|I (Mmp1:d Mmp1 d X 0 1.4105 3.0150) // $llx=1.4105 $lly=3.0150 $urx=1.4105 $ury=3.0150 $lvl=4