*
*|DSPF 1.5
*
*|DATE "Wed Jan  8 19:50:21 2025"
*|VENDOR "Cadence Design Systems"
*|PROGRAM "Cadence Quantus Extraction"
*|VERSION "22.1.0-p089 Linux 64 bit - (Thu Jan 19 11:47:08 PST 2023)"
*|DESIGN OR2X2_HS
*|DIVIDER /
*|DELIMITER :
*|DeviceFingerDelim "@"
*|BUSBIT []
*|GLOBAL_TEMPERATURE 25
*|OPERATING_TEMPERATURE 25

** *VIA_COVERAGE_CODES
** *index FF FS FP FU SF SS SP SU PF PS PP PU UF US UP UU X_by_Y
** * "FF" stands for Full landing and Full coverage
** *0 0 0 0 0 0 0 0 0 0 0 0 0 0 0 0 0
** *1 0 0 0 0 0 0 0 0 0 0 0 0 0 0 0 1 1x1
** *2 0 0 0 0 0 0 0 0 0 0 0 0 0 0 1 0 1x1
** *3 0 0 0 0 0 0 0 0 0 0 0 0 0 1 0 0 1x1
** *4 0 0 0 0 0 0 0 0 0 0 0 0 1 0 0 0 1x1
** *5 0 0 0 0 0 0 0 0 0 0 0 1 0 0 0 0 1x1
** *6 0 0 0 0 0 0 0 0 0 0 1 0 0 0 0 0 1x1
** *7 0 0 0 0 0 0 0 0 0 1 0 0 0 0 0 0 1x1
** *8 0 0 0 0 0 0 0 0 1 0 0 0 0 0 0 0 1x1
** *9 0 0 0 0 0 0 0 1 0 0 0 0 0 0 0 0 1x1
** *10 0 0 0 0 0 0 1 0 0 0 0 0 0 0 0 0 1x1
** *11 0 0 0 0 0 1 0 0 0 0 0 0 0 0 0 0 1x1
** *12 0 0 0 0 1 0 0 0 0 0 0 0 0 0 0 0 1x1
** *13 0 0 0 1 0 0 0 0 0 0 0 0 0 0 0 0 1x1
** *14 0 0 1 0 0 0 0 0 0 0 0 0 0 0 0 0 1x1
** *15 0 1 0 0 0 0 0 0 0 0 0 0 0 0 0 0 1x1
** *16 1 0 0 0 0 0 0 0 0 0 0 0 0 0 0 0 1x1

** *RESISTOR_TYPES
** *1 SHORTING_ELEMENT
** *2 PRES_NG
** *3 PRES_PG
** *4 PRES_NF
** *5 PRES_PF
** *6 TCN_NDIFF
** *7 TCN_PDIFF
** *8 TCN_NFIELD
** *9 TCN_PFIELD
** *10 QUALITY_EXTRACTED
** *11 GCNLAND
** *12 TCNLAND
** *13 DUMMY
** *14 RSD
** *15 BRIDGE

** *RESISTOR_CURRENT_DIRECTION
** *0 HORIZONTAL
** *1 VERTICAL
** *2 45 DEGREE

** QRC_TECH_DIR /vols/wfo_devel/projects/reference_SKY130/tech/sky130_release_0.0.4/quantus/extraction/typical 
** HIERARCHICAL_SPLIT_PINS_DELIMITER '%'
** caps2d version: 10
*
.SUBCKT  OR2X2_HS A B Y
*
*Net Section
*
*|GROUND_NET VSS!
*
*LAYER_MAP
*0 none
*1 metal1
*2 li
*3 poly
*4 diff
*5 licon_diff
*6 mcon
*7 licon
*8 FOX

*|NET n1 2.95015e-16
*|I (Mmp1:s Mmp1 s X 0 0.5505 3.3550) // $llx=0.5505 $lly=3.3550 $urx=0.5505 $ury=3.3550 $lvl=4
*|I (Mmp0:d Mmp0 d X 0 0.8295 3.3550) // $llx=0.8295 $lly=3.3550 $urx=0.8295 $ury=3.3550 $lvl=4
*|S (n1 0.6900 3.5895) // $llx=0.6900 $lly=3.5895 $urx=0.6900 $ury=3.5895 $lvl=2
*|S (n1:3 0.6900 3.2750) // $llx=0.6900 $lly=3.2750 $urx=0.6900 $ury=3.2750 $lvl=2
*|S (n1:4 0.6900 2.9650) // $llx=0.6900 $lly=2.9650 $urx=0.6900 $ury=2.9650 $lvl=2
CG1 Mmp1:s VSS! 6.0432e-19 $lvl=4
CG2 n1:3 VSS! 2.02944e-18 $lvl=2
CG3 n1:4 VSS! 2.75403e-18 $lvl=2
CG4 n1 VSS! 1.41586e-18 $lvl=2
RfG122 n1 n1:3 23.680000 $li  $L=0.3145 $W=0.170000 $SI_W=0.17 $TYPE=10 $DIR=1 $LLX=0.605000 $LLY=3.275000 $URX=0.775000 $URY=3.589500 $lvl=2
RfG123 n1:3 n1:4 23.341177 $li  $L=0.31 $W=0.170000 $SI_W=0.17 $TYPE=10 $DIR=1 $LLX=0.605000 $LLY=2.965000 $URX=0.775000 $URY=3.275000 $lvl=2
Rh_2_G124 Mmp1:s n1:3 15.000000 $licon_diff  $L=0.17 $W=0.17 $A=0.0289 $VC=0 $SAVL=0 $SAVC=0 $SI_A=0.0289 $COVER_DIR=0 $LLX=0.000000 $LLY=0.000000 $URX=0.170000 $URY=0.170000 $lvl=5
RmwG125 Mmp0:d Mmp1:s 0.001000 $diff $W=1000000 $SI_W=1000000 $TYPE=1 $DIR=0
*
*|NET B 7.75301e-16
*|P (B X 0 0.4750 1.4500) // $llx=0.4750 $lly=1.4500 $urx=0.4750 $ury=1.4500 $lvl=1
*|I (Mmp1:g Mmp1 g X 0 0.4750 3.3550) // $llx=0.4750 $lly=3.3550 $urx=0.4750 $ury=3.3550 $lvl=3
*|I (Mmn1:g Mmn1 g X 0 0.4750 0.6075) // $llx=0.4750 $lly=0.6075 $urx=0.4750 $ury=0.6075 $lvl=3
*|S (B:8 0.4750 3.8950) // $llx=0.4750 $lly=3.8950 $urx=0.4750 $ury=3.8950 $lvl=3
*|S (B:9 0.4150 1.2895) // $llx=0.4150 $lly=1.2895 $urx=0.4150 $ury=1.2895 $lvl=3
*|S (B:10 0.4150 1.1250) // $llx=0.4150 $lly=1.1250 $urx=0.4150 $ury=1.1250 $lvl=3
*|S (B:11 0.4150 0.9600) // $llx=0.4150 $lly=0.9600 $urx=0.4150 $ury=0.9600 $lvl=3
*|S (B:12 0.4750 0.2450) // $llx=0.4750 $lly=0.2450 $urx=0.4750 $ury=0.2450 $lvl=3
*|S (B:13 0.6250 1.1250) // $llx=0.6250 $lly=1.1250 $urx=0.6250 $ury=1.1250 $lvl=2
*|S (B:14 0.4600 1.1250) // $llx=0.4600 $lly=1.1250 $urx=0.4600 $ury=1.1250 $lvl=2
*|S (B:15 0.4150 1.1250) // $llx=0.4150 $lly=1.1250 $urx=0.4150 $ury=1.1250 $lvl=2
*|S (B:16 0.2400 1.1250) // $llx=0.2400 $lly=1.1250 $urx=0.2400 $ury=1.1250 $lvl=2
*|S (B:17 0.4600 2.0950) // $llx=0.4600 $lly=2.0950 $urx=0.4600 $ury=2.0950 $lvl=1
*|S (B:18 0.4600 1.1250) // $llx=0.4600 $lly=1.1250 $urx=0.4600 $ury=1.1250 $lvl=1
*|S (B:19 0.4600 0.8550) // $llx=0.4600 $lly=0.8550 $urx=0.4600 $ury=0.8550 $lvl=1
CB1 B:8 VSS! 1.49557e-18 $lvl=3
CB2 B:12 VSS! 1.25232e-18 $lvl=3
CB3 B:18 VSS! 3.89658e-18 $lvl=1
CB4 B:19 VSS! 2.94894e-18 $lvl=1
CB5 B:15 VSS! 2.33264e-18 $lvl=2
CB6 B:16 VSS! 3.12588e-18 $lvl=2
CB7 B:14 VSS! 2.30076e-18 $lvl=2
CB8 B:10 VSS! 1.66816e-17 $lvl=3
CB9 B VSS! 9.81618e-18 $lvl=1
CB10 B:8 n1:4 1.29856e-18 $lvl1=3 $lvl2=2
CB11 B:8 n1:3 6.86455e-17 $lvl1=3 $lvl2=2
CB12 B:8 n1 1.4997e-18 $lvl1=3 $lvl2=2
CB13 B n0:41 2.95703e-18 $lvl1=1 $lvl2=1
CB14 B:18 n0:47 2.58973e-18 $lvl1=1 $lvl2=1
CB15 B:15 n0:37 2.06386e-18 $lvl1=2 $lvl2=2
CB16 B n0:43 2.01067e-18 $lvl1=1 $lvl2=1
CB17 B:14 n0:45 2.00803e-18 $lvl1=2 $lvl2=1
CB18 B:19 n0:33 1.86546e-18 $lvl1=1 $lvl2=2
CB19 B:19 n0:30 1.78099e-18 $lvl1=1 $lvl2=2
CB20 B n0:45 1.64894e-18 $lvl1=1 $lvl2=1
CB21 B n0:40 1.40934e-18 $lvl1=1 $lvl2=1
CB22 B n0:29 1.36992e-18 $lvl1=1 $lvl2=2
CB23 B:8 n0:29 1.30929e-18 $lvl1=3 $lvl2=2
CB24 B:15 n0:45 1.27232e-18 $lvl1=2 $lvl2=1
CB25 B n0:25 1.21317e-18 $lvl1=1 $lvl2=2
CB26 B:10 Mmn0:d 1.12485e-18 $lvl1=3 $lvl2=4
CB27 B n0:47 1.09293e-18 $lvl1=1 $lvl2=1
CB28 B:10 n0:37 9.86249e-19 $lvl1=3 $lvl2=2
CB29 B n0:37 8.54879e-19 $lvl1=1 $lvl2=2
CB30 B:18 n0:44 8.49713e-19 $lvl1=1 $lvl2=1
CB31 B:14 n0:47 8.26534e-19 $lvl1=2 $lvl2=1
CB32 B:18 n0:43 8.02342e-19 $lvl1=1 $lvl2=1
CB33 B n0:44 7.958e-19 $lvl1=1 $lvl2=1
CB34 B:14 n0:33 7.77429e-19 $lvl1=2 $lvl2=2
CB35 B:14 n0:37 6.25096e-19 $lvl1=2 $lvl2=2
CB36 B:19 n0:44 5.60674e-19 $lvl1=1 $lvl2=1
CB37 B:10 n0:17 5.48447e-19 $lvl1=3 $lvl2=3
CB38 B n0:28 5.25885e-19 $lvl1=1 $lvl2=2
CB39 B:18 n0:38 5.12017e-19 $lvl1=1 $lvl2=1
CB40 B:19 n0:43 3.86591e-19 $lvl1=1 $lvl2=1
CB41 B:16 n0:30 3.60941e-19 $lvl1=2 $lvl2=2
CB42 B:18 n0:30 3.54342e-19 $lvl1=1 $lvl2=2
CB43 B:18 n0:37 3.52067e-19 $lvl1=1 $lvl2=2
CB44 B:15 n0:33 3.0622e-19 $lvl1=2 $lvl2=2
CB45 B:18 n0:41 2.9454e-19 $lvl1=1 $lvl2=1
CB46 B:15 n0:47 2.67455e-19 $lvl1=2 $lvl2=1
CB47 B:19 n0:38 2.65532e-19 $lvl1=1 $lvl2=1
CB48 B:15 n0:17 2.58203e-19 $lvl1=2 $lvl2=3
CB49 B:8 n0:38 2.54522e-19 $lvl1=3 $lvl2=1
CB50 B:15 n0:44 2.46868e-19 $lvl1=2 $lvl2=1
CB51 B Mmp1:d 2.2536e-19 $lvl1=1 $lvl2=4
CB52 B:14 n0:44 2.14524e-19 $lvl1=2 $lvl2=1
CB53 B:15 n0:36 2.00061e-19 $lvl1=2 $lvl2=2
CB54 B:16 n0:47 1.98856e-19 $lvl1=2 $lvl2=1
CB55 B:10 n0:45 1.97971e-19 $lvl1=3 $lvl2=1
CB56 B:10 n0:38 1.96987e-19 $lvl1=3 $lvl2=1
CB57 B:10 n0:25 1.77565e-19 $lvl1=3 $lvl2=2
CB58 B:18 n0:33 1.71924e-19 $lvl1=1 $lvl2=2
CB59 B:8 n0:40 1.71606e-19 $lvl1=3 $lvl2=1
CB60 B:14 n0:36 1.59034e-19 $lvl1=2 $lvl2=2
CB61 B:18 n0:40 1.5791e-19 $lvl1=1 $lvl2=1
CB62 B:10 n0 1.53526e-19 $lvl1=3 $lvl2=3
CB63 B:10 n0:47 1.52112e-19 $lvl1=3 $lvl2=1
CB64 B:8 n0:28 1.46459e-19 $lvl1=3 $lvl2=2
CB65 B n0:17 1.3325e-19 $lvl1=1 $lvl2=3
CB66 B:14 n0:43 1.32728e-19 $lvl1=2 $lvl2=1
CB67 B:16 n0:33 1.30759e-19 $lvl1=2 $lvl2=2
CB68 B:15 n0:30 7.25619e-18 $lvl1=2 $lvl2=2
CB69 B n0:38 5.46285e-18 $lvl1=1 $lvl2=1
CB70 B:18 n0:45 1.30136e-17 $lvl1=1 $lvl2=1
CB71 B:8 n0:25 1.34961e-16 $lvl1=3 $lvl2=2
CB72 B:10 n0:30 6.18505e-18 $lvl1=3 $lvl2=2
CB73 B:19 n0:45 1.84966e-17 $lvl1=1 $lvl2=1
CB74 B:14 n0:30 3.96559e-18 $lvl1=2 $lvl2=2
CB75 B:12 n0:30 6.69099e-17 $lvl1=3 $lvl2=2
CB76 B:19 n0:47 1.53002e-17 $lvl1=1 $lvl2=1
CB77 B:19 VSS!:19 3.45023e-18 $lvl1=1 $lvl2=1
CB78 B:15 VSS!:16 3.00005e-18 $lvl1=2 $lvl2=2
CB79 B:10 VSS!:13 2.68896e-18 $lvl1=3 $lvl2=2
CB80 B:19 VSS!:18 2.58457e-18 $lvl1=1 $lvl2=1
CB81 B:10 Mmn1:s 1.99442e-18 $lvl1=3 $lvl2=4
CB82 B:18 VSS!:19 1.80561e-18 $lvl1=1 $lvl2=1
CB83 B:18 VSS!:16 1.76569e-18 $lvl1=1 $lvl2=2
CB84 B VSS!:18 1.60684e-18 $lvl1=1 $lvl2=1
CB85 B VSS!:16 1.55766e-18 $lvl1=1 $lvl2=2
CB86 B:18 VSS!:18 1.53663e-18 $lvl1=1 $lvl2=1
CB87 B VSS!:19 1.48103e-18 $lvl1=1 $lvl2=1
CB88 B:12 VSS!:13 1.08331e-18 $lvl1=3 $lvl2=2
CB89 B:14 VSS!:13 9.39295e-19 $lvl1=2 $lvl2=2
CB90 B:10 Mmn0:s 6.38435e-19 $lvl1=3 $lvl2=4
CB91 B:19 VSS!:9 6.02235e-19 $lvl1=1 $lvl2=2
CB92 B VSS!:13 4.61944e-19 $lvl1=1 $lvl2=2
CB93 B:16 VSS!:19 4.39198e-19 $lvl1=2 $lvl2=1
CB94 B:14 VSS!:19 3.97234e-19 $lvl1=2 $lvl2=1
CB95 B:19 VSS!:10 3.24074e-19 $lvl1=1 $lvl2=2
CB96 B:10 VSS!:19 3.22672e-19 $lvl1=3 $lvl2=1
CB97 B:18 VSS!:9 2.90497e-19 $lvl1=1 $lvl2=2
CB98 B VSS!:10 2.82597e-19 $lvl1=1 $lvl2=2
CB99 B:19 VSS!:13 2.7545e-19 $lvl1=1 $lvl2=2
CB100 B VSS!:9 2.6877e-19 $lvl1=1 $lvl2=2
CB101 B:18 VSS!:13 2.52503e-19 $lvl1=1 $lvl2=2
CB102 B VSS!:17 2.41246e-19 $lvl1=1 $lvl2=1
CB103 B:14 VSS!:9 1.73623e-19 $lvl1=2 $lvl2=2
CB104 B:15 VSS!:13 4.23098e-18 $lvl1=2 $lvl2=2
CB105 B:14 VSS!:16 5.98211e-18 $lvl1=2 $lvl2=2
CB106 B:12 VSS!:9 8.70473e-18 $lvl1=3 $lvl2=2
CB107 B:12 VSS!:16 6.61674e-17 $lvl1=3 $lvl2=2
CB108 B:19 VSS!:16 4.61456e-18 $lvl1=1 $lvl2=2
CB109 B:16 VSS!:16 6.22634e-18 $lvl1=2 $lvl2=2
CB110 B:10 VSS!:16 1.13533e-17 $lvl1=3 $lvl2=2
CB111 B:8 VDD!:1 2.84585e-18 $lvl1=3 $lvl2=2
CB112 B:14 VDD! 2.43965e-18 $lvl1=2 $lvl2=1
CB113 B VDD!:1 2.10768e-18 $lvl1=1 $lvl2=2
CB114 B VDD!:13 1.14925e-18 $lvl1=1 $lvl2=1
CB115 B VDD!:14 9.10611e-19 $lvl1=1 $lvl2=1
CB116 B:15 VDD! 7.57711e-19 $lvl1=2 $lvl2=1
CB117 B:18 VDD! 9.36525e-18 $lvl1=1 $lvl2=1
CB118 B:8 VDD!:4 9.88537e-18 $lvl1=3 $lvl2=2
CB119 B:19 VDD! 6.75725e-18 $lvl1=1 $lvl2=1
CB120 B:16 VDD! 3.89185e-18 $lvl1=2 $lvl2=1
CB121 B:10 VDD! 6.77605e-18 $lvl1=3 $lvl2=1
CB122 B VDD! 3.00204e-17 $lvl1=1 $lvl2=1
ReB14 B:17 B 0.310096 $metal1  $L=0.645 $W=0.260000 $SI_W=0.26 $TYPE=10 $DIR=1 $LLX=0.330000 $LLY=1.450000 $URX=0.590000 $URY=2.095000 $lvl=1
ReB15 B B:18 0.156250 $metal1  $L=0.325 $W=0.260000 $SI_W=0.26 $TYPE=10 $DIR=1 $LLX=0.330000 $LLY=1.125000 $URX=0.590000 $URY=1.450000 $lvl=1
ReB16 B:18 B:19 0.129808 $metal1  $L=0.27 $W=0.260000 $SI_W=0.26 $TYPE=10 $DIR=1 $LLX=0.330000 $LLY=0.855000 $URX=0.590000 $URY=1.125000 $lvl=1
RfB17 B:13 B:14 12.423529 $li  $L=0.165 $W=0.170000 $SI_W=0.17 $TYPE=10 $DIR=0 $LLX=0.460000 $LLY=1.040000 $URX=0.625000 $URY=1.210000 $lvl=2
RfB18 B:14 B:15 3.388236 $li  $L=0.045 $W=1000000 $SI_W=1000000 $TYPE=1,10 $DIR=0 $LLX=0.415000 $LLY=1.040000 $URX=0.460000 $URY=1.210000 $lvl=2
RfB19 B:15 B:16 13.176471 $li  $L=0.175 $W=0.170000 $SI_W=0.17 $TYPE=10 $DIR=0 $LLX=0.240000 $LLY=1.040000 $URX=0.415000 $URY=1.210000 $lvl=2
RgB20 B:8 Mmp1:g 173.519989 $poly  $L=0.54 $W=0.150000 $SI_W=0.15 $TYPE=10 $DIR=1 $LLX=0.400000 $LLY=3.355000 $URX=0.550000 $URY=3.895000 $lvl=3
RgB21 Mmp1:g B:9 663.597961 $poly  $L=2.065 $W=0.150000 $SI_W=0.15 $TYPE=10 $DIR=1 $LLX=0.400000 $LLY=1.289500 $URX=0.550000 $URY=3.354500 $lvl=3
RgB22 B:9 B:10 38.857975 $poly  $L=0.1645 $W=0.270000 $SI_W=0.27 $TYPE=10 $DIR=1 $LLX=0.280000 $LLY=1.125000 $URX=0.550000 $URY=1.289500 $lvl=3
RgB23 B:10 B:11 29.410927 $poly  $L=0.1645 $W=0.270000 $SI_W=0.27 $TYPE=10 $DIR=1 $LLX=0.280000 $LLY=0.960500 $URX=0.550000 $URY=1.125000 $lvl=3
RgB24 B:11 Mmn1:g 113.314629 $poly  $L=0.3525 $W=0.150000 $SI_W=0.15 $TYPE=10 $DIR=1 $LLX=0.400000 $LLY=0.607500 $URX=0.550000 $URY=0.960000 $lvl=3
RgB25 Mmn1:g B:12 116.483322 $poly  $L=0.3625 $W=0.150000 $SI_W=0.15 $TYPE=10 $DIR=1 $LLX=0.400000 $LLY=0.245000 $URX=0.550000 $URY=0.607500 $lvl=3
RjB26 B:14 B:18 152.000000 $mcon  $L=0.17 $W=0.17 $A=0.0289 $VC=0 $SAVL=0 $SAVC=0 $SI_A=0.0289 $COVER_DIR=0 $LLX=0.000000 $LLY=0.000000 $URX=0.170000 $URY=0.170000 $lvl=6
RiB27 B:10 B:15 15.000000 $licon  $L=0.17 $W=0.17 $A=0.0289 $VC=0 $SAVL=0 $SAVC=0 $SI_A=0.0289 $COVER_DIR=0 $LLX=0.000000 $LLY=0.000000 $URX=0.170000 $URY=0.170000 $lvl=7
*
*|NET A 8.19391e-16
*|P (A X 0 0.9350 2.0700) // $llx=0.9350 $lly=2.0700 $urx=0.9350 $ury=2.0700 $lvl=1
*|I (Mmp0:g Mmp0 g X 0 0.9050 3.3550) // $llx=0.9050 $lly=3.3550 $urx=0.9050 $ury=3.3550 $lvl=3
*|I (Mmn0:g Mmn0 g X 0 0.9050 0.6075) // $llx=0.9050 $lly=0.6075 $urx=0.9050 $ury=0.6075 $lvl=3
*|S (A:8 0.9050 3.8950) // $llx=0.9050 $lly=3.8950 $urx=0.9050 $ury=3.8950 $lvl=3
*|S (A:9 0.9050 1.8100) // $llx=0.9050 $lly=1.8100 $urx=0.9050 $ury=1.8100 $lvl=3
*|S (A:10 0.9050 1.6450) // $llx=0.9050 $lly=1.6450 $urx=0.9050 $ury=1.6450 $lvl=3
*|S (A:11 0.9050 0.2450) // $llx=0.9050 $lly=0.2450 $urx=0.9050 $ury=0.2450 $lvl=3
*|S (A:12 1.0850 1.8100) // $llx=1.0850 $lly=1.8100 $urx=1.0850 $ury=1.8100 $lvl=2
*|S (A:13 0.9200 1.8100) // $llx=0.9200 $lly=1.8100 $urx=0.9200 $ury=1.8100 $lvl=2
*|S (A:14 0.9050 1.8100) // $llx=0.9050 $lly=1.8100 $urx=0.9050 $ury=1.8100 $lvl=2
*|S (A:15 0.7000 1.8100) // $llx=0.7000 $lly=1.8100 $urx=0.7000 $ury=1.8100 $lvl=2
*|S (A:16 0.9200 2.5000) // $llx=0.9200 $lly=2.5000 $urx=0.9200 $ury=2.5000 $lvl=1
*|S (A:17 0.9200 1.8100) // $llx=0.9200 $lly=1.8100 $urx=0.9200 $ury=1.8100 $lvl=1
*|S (A:18 0.9200 1.2600) // $llx=0.9200 $lly=1.2600 $urx=0.9200 $ury=1.2600 $lvl=1
CA1 Mmn0:g VSS! 8.76676e-19 $lvl=3
CA2 A:8 VSS! 9.73022e-19 $lvl=3
CA3 A:17 VSS! 3.35188e-18 $lvl=1
CA4 A:18 VSS! 2.47535e-18 $lvl=1
CA5 A:14 VSS! 3.59051e-18 $lvl=2
CA6 A:15 VSS! 3.29091e-18 $lvl=2
CA7 A:13 VSS! 2.64756e-18 $lvl=2
CA8 A:9 VSS! 1.90043e-17 $lvl=3
CA9 A VSS! 4.93968e-18 $lvl=1
CA10 A n1:4 1.3707e-18 $lvl1=1 $lvl2=2
CA11 A:8 n1:4 1.20732e-18 $lvl1=3 $lvl2=2
CA12 A n1:3 5.13169e-19 $lvl1=1 $lvl2=2
CA13 A:8 n1 1.59516e-18 $lvl1=3 $lvl2=2
CA14 A:8 n1:3 7.04978e-17 $lvl1=3 $lvl2=2
CA15 A n0:40 3.48955e-18 $lvl1=1 $lvl2=1
CA16 A:13 n0:37 2.82838e-18 $lvl1=2 $lvl2=2
CA17 A:14 n0:43 2.6768e-18 $lvl1=2 $lvl2=1
CA18 A:14 n0:36 2.49543e-18 $lvl1=2 $lvl2=2
CA19 A:14 n0:35 2.44709e-18 $lvl1=2 $lvl2=2
CA20 A:14 n0:17 2.21943e-18 $lvl1=2 $lvl2=3
CA21 A:13 n0:36 2.13288e-18 $lvl1=2 $lvl2=2
CA22 A:17 n0:41 1.98427e-18 $lvl1=1 $lvl2=1
CA23 A:8 n0:25 1.96979e-18 $lvl1=3 $lvl2=2
CA24 A:9 n0:23 1.6858e-18 $lvl1=3 $lvl2=3
CA25 A:15 n0:37 1.30861e-18 $lvl1=2 $lvl2=2
CA26 A:9 n0:35 1.19178e-18 $lvl1=3 $lvl2=2
CA27 A n0:29 9.39131e-19 $lvl1=1 $lvl2=2
CA28 A:18 n0:47 8.48248e-19 $lvl1=1 $lvl2=1
CA29 A:14 n0:41 8.08717e-19 $lvl1=2 $lvl2=1
CA30 A:13 n0:41 7.3116e-19 $lvl1=2 $lvl2=1
CA31 A n0:25 6.11243e-19 $lvl1=1 $lvl2=2
CA32 A:9 n0:43 5.80062e-19 $lvl1=3 $lvl2=1
CA33 A:18 n0:30 5.26383e-19 $lvl1=1 $lvl2=2
CA34 A:13 n0:35 4.94227e-19 $lvl1=2 $lvl2=2
CA35 A:18 n0:41 4.78727e-19 $lvl1=1 $lvl2=1
CA36 A:9 n0 4.64424e-19 $lvl1=3 $lvl2=3
CA37 A:14 n0:23 4.3607e-19 $lvl1=2 $lvl2=3
CA38 A:9 n0:41 4.25462e-19 $lvl1=3 $lvl2=1
CA39 A:9 n0:36 4.07576e-19 $lvl1=3 $lvl2=2
CA40 A n0:28 3.56416e-19 $lvl1=1 $lvl2=2
CA41 A:9 n0:30 3.45037e-19 $lvl1=3 $lvl2=2
CA42 A:17 n0:38 3.33248e-19 $lvl1=1 $lvl2=1
CA43 A:9 n0:25 3.1817e-19 $lvl1=3 $lvl2=2
CA44 A:8 n0:29 3.12452e-19 $lvl1=3 $lvl2=2
CA45 A:17 n0:45 3.07813e-19 $lvl1=1 $lvl2=1
CA46 A:17 n0:36 2.9369e-19 $lvl1=1 $lvl2=2
CA47 A:9 n0:29 2.85344e-19 $lvl1=3 $lvl2=2
CA48 A:18 n0:38 2.79011e-19 $lvl1=1 $lvl2=1
CA49 A:9 n0:15 2.72016e-19 $lvl1=3 $lvl2=3
CA50 A:13 n0:17 2.65463e-19 $lvl1=2 $lvl2=3
CA51 A:17 n0:44 2.57332e-19 $lvl1=1 $lvl2=1
CA52 A:15 n0:25 2.45566e-19 $lvl1=2 $lvl2=2
CA53 A:17 n0:40 2.34177e-19 $lvl1=1 $lvl2=1
CA54 A:15 n0:41 2.28286e-19 $lvl1=2 $lvl2=1
CA55 A:9 n0:38 2.27402e-19 $lvl1=3 $lvl2=1
CA56 A:18 n0:35 2.08579e-19 $lvl1=1 $lvl2=2
CA57 A:15 n0:38 2.0151e-19 $lvl1=2 $lvl2=1
CA58 A:8 n0:40 1.99304e-19 $lvl1=3 $lvl2=1
CA59 A:18 n0:40 1.90669e-19 $lvl1=1 $lvl2=1
CA60 A:8 n0:38 1.88778e-19 $lvl1=3 $lvl2=1
CA61 Mmn0:g n0:37 1.81189e-19 $lvl1=3 $lvl2=2
CA62 A:15 n0:17 1.7732e-19 $lvl1=2 $lvl2=3
CA63 A:18 n0:17 1.76842e-19 $lvl1=1 $lvl2=3
CA64 A n0:44 1.74297e-19 $lvl1=1 $lvl2=1
CA65 A:17 n0:47 1.69634e-19 $lvl1=1 $lvl2=1
CA66 Mmn0:g n0:17 1.63465e-19 $lvl1=3 $lvl2=3
CA67 A:15 n0:29 1.60881e-19 $lvl1=2 $lvl2=2
CA68 A n0:17 1.60489e-19 $lvl1=1 $lvl2=3
CA69 A n0:35 1.49218e-19 $lvl1=1 $lvl2=2
CA70 A n0:47 1.48069e-19 $lvl1=1 $lvl2=1
CA71 A:15 n0:43 1.44836e-19 $lvl1=2 $lvl2=1
CA72 A:13 n0:38 1.28109e-19 $lvl1=2 $lvl2=1
CA73 A n0:45 1.21785e-19 $lvl1=1 $lvl2=1
CA74 A:15 n0:36 1.19891e-19 $lvl1=2 $lvl2=2
CA75 A:18 n0:37 4.47644e-18 $lvl1=1 $lvl2=2
CA76 A:18 n0:43 5.35934e-17 $lvl1=1 $lvl2=1
CA77 A:18 n0:36 4.73329e-18 $lvl1=1 $lvl2=2
CA78 A:13 n0:43 4.33274e-18 $lvl1=2 $lvl2=1
CA79 A:9 n0:17 5.41483e-18 $lvl1=3 $lvl2=3
CA80 A:14 n0:37 9.89978e-18 $lvl1=2 $lvl2=2
CA81 A:18 n0:45 1.7138e-17 $lvl1=1 $lvl2=1
CA82 A:9 n0:37 6.00647e-18 $lvl1=3 $lvl2=2
CA83 Mmn0:g n0:30 6.93992e-17 $lvl1=3 $lvl2=2
CA84 A:18 n0:44 8.09429e-18 $lvl1=1 $lvl2=1
CA85 A n0:43 1.63134e-17 $lvl1=1 $lvl2=1
CA86 A n0:41 7.97522e-17 $lvl1=1 $lvl2=1
CA87 A n0:38 5.59538e-18 $lvl1=1 $lvl2=1
CA88 A:17 n0:43 3.89832e-17 $lvl1=1 $lvl2=1
CA89 A:18 VSS!:13 2.69598e-18 $lvl1=1 $lvl2=2
CA90 A:9 VSS!:13 1.70072e-18 $lvl1=3 $lvl2=2
CA91 A:18 VSS!:18 7.84701e-19 $lvl1=1 $lvl2=1
CA92 A:9 Mmn0:s 7.1355e-19 $lvl1=3 $lvl2=4
CA93 Mmn0:g VSS!:16 6.07811e-19 $lvl1=3 $lvl2=2
CA94 A:15 VSS!:13 3.99667e-19 $lvl1=2 $lvl2=2
CA95 A:18 VSS!:19 3.7132e-19 $lvl1=1 $lvl2=1
CA96 Mmn0:g VSS!:13 4.18367e-17 $lvl1=3 $lvl2=2
CA97 Mmn0:g VSS!:9 9.35865e-18 $lvl1=3 $lvl2=2
CA98 A:18 VDD! 3.95978e-18 $lvl1=1 $lvl2=1
CA99 A:17 VDD! 2.70093e-18 $lvl1=1 $lvl2=1
CA100 A:15 VDD! 2.23269e-18 $lvl1=2 $lvl2=1
CA101 A:13 VDD!:1 1.78489e-18 $lvl1=2 $lvl2=2
CA102 A:9 Mmp2:s 1.44115e-18 $lvl1=3 $lvl2=4
CA103 A:15 VDD!:1 1.43294e-18 $lvl1=2 $lvl2=2
CA104 A VDD!:13 8.77502e-19 $lvl1=1 $lvl2=1
CA105 A:14 VDD! 8.00832e-19 $lvl1=2 $lvl2=1
CA106 A:13 VDD! 6.56893e-19 $lvl1=2 $lvl2=1
CA107 A VDD!:1 1.00392e-17 $lvl1=1 $lvl2=2
CA108 A:8 VDD!:4 1.13965e-17 $lvl1=3 $lvl2=2
CA109 A:8 VDD!:1 7.26277e-17 $lvl1=3 $lvl2=2
CA110 A:9 VDD! 6.84648e-18 $lvl1=3 $lvl2=1
CA111 A VDD! 8.7142e-18 $lvl1=1 $lvl2=1
CA112 A:14 VDD!:1 4.11931e-18 $lvl1=2 $lvl2=2
CA113 A:9 VDD!:1 6.71747e-18 $lvl1=3 $lvl2=2
CA114 A Y 1.74035e-18 $lvl1=1 $lvl2=1
CA115 A Y:10 1.3635e-18 $lvl1=1 $lvl2=1
CA116 A:18 Y 1.21284e-18 $lvl1=1 $lvl2=1
CA117 A:18 Y:13 1.01406e-18 $lvl1=1 $lvl2=1
CA118 A:17 Y 1.00728e-18 $lvl1=1 $lvl2=1
CA119 A:14 Y 7.09528e-19 $lvl1=2 $lvl2=1
CA120 A:14 Y:5 6.35663e-19 $lvl1=2 $lvl2=2
CA121 A:9 Y:1 5.89682e-19 $lvl1=3 $lvl2=2
CA122 A:9 Y:5 4.63613e-19 $lvl1=3 $lvl2=2
CA123 A Y:1 3.54294e-19 $lvl1=1 $lvl2=2
CA124 A Y:5 3.52995e-19 $lvl1=1 $lvl2=2
CA125 A:9 B:10 2.76408e-18 $lvl1=3 $lvl2=3
CA126 A:9 B 2.46369e-18 $lvl1=3 $lvl2=1
CA127 A:18 B:14 2.17509e-18 $lvl1=1 $lvl2=2
CA128 Mmn0:g B:10 1.60474e-18 $lvl1=3 $lvl2=3
CA129 A:18 B:15 1.51879e-18 $lvl1=1 $lvl2=2
CA130 A:18 B:19 1.31329e-18 $lvl1=1 $lvl2=1
CA131 A:15 B:10 1.05426e-18 $lvl1=2 $lvl2=3
CA132 A:9 B:15 1.03137e-18 $lvl1=3 $lvl2=2
CA133 A:15 B:15 9.61916e-19 $lvl1=2 $lvl2=2
CA134 A:14 B 8.62149e-19 $lvl1=2 $lvl2=1
CA135 A:15 B:14 7.9814e-19 $lvl1=2 $lvl2=2
CA136 A:17 B:18 5.74093e-19 $lvl1=1 $lvl2=1
CA137 A B:18 4.70956e-19 $lvl1=1 $lvl2=1
CA138 A:9 B:14 4.6022e-19 $lvl1=3 $lvl2=2
CA139 A:13 B:15 4.45865e-19 $lvl1=2 $lvl2=2
CA140 A:13 B:14 4.18285e-19 $lvl1=2 $lvl2=2
CA141 A:18 B:10 4.16117e-19 $lvl1=1 $lvl2=3
CA142 Mmn0:g B:15 3.91868e-19 $lvl1=3 $lvl2=2
CA143 A:13 B:10 3.3178e-19 $lvl1=2 $lvl2=3
CA144 A:15 B:18 3.28562e-19 $lvl1=2 $lvl2=1
CA145 A:9 B:16 3.24161e-19 $lvl1=3 $lvl2=2
CA146 A:14 B:15 3.11838e-19 $lvl1=2 $lvl2=2
CA147 A:15 B:16 3.03439e-19 $lvl1=2 $lvl2=2
CA148 A:18 B 3.0453e-17 $lvl1=1 $lvl2=1
CA149 A:13 B 5.01898e-18 $lvl1=2 $lvl2=1
CA150 A B 2.62444e-17 $lvl1=1 $lvl2=1
CA151 A:17 B 2.76336e-17 $lvl1=1 $lvl2=1
CA152 A:15 B 6.19099e-18 $lvl1=2 $lvl2=1
CA153 A:18 B:18 1.62897e-17 $lvl1=1 $lvl2=1
ReA1 A:16 A 0.206731 $metal1  $L=0.43 $W=0.260000 $SI_W=0.26 $TYPE=10 $DIR=1 $LLX=0.790000 $LLY=2.070000 $URX=1.050000 $URY=2.500000 $lvl=1
ReA2 A A:17 0.125000 $metal1  $L=0.26 $W=0.260000 $SI_W=0.26 $TYPE=10 $DIR=1 $LLX=0.790000 $LLY=1.810000 $URX=1.050000 $URY=2.070000 $lvl=1
ReA3 A:17 A:18 0.264423 $metal1  $L=0.55 $W=0.260000 $SI_W=0.26 $TYPE=10 $DIR=1 $LLX=0.790000 $LLY=1.260000 $URX=1.050000 $URY=1.810000 $lvl=1
RfA4 A:12 A:13 12.423529 $li  $L=0.165 $W=0.170000 $SI_W=0.17 $TYPE=10 $DIR=0 $LLX=0.920000 $LLY=1.725000 $URX=1.085000 $URY=1.895000 $lvl=2
RfA5 A:13 A:14 1.129412 $li  $L=0.015 $W=1000000 $SI_W=1000000 $TYPE=1,10 $DIR=0 $LLX=0.905000 $LLY=1.725000 $URX=0.920000 $URY=1.895000 $lvl=2
RfA6 A:14 A:15 15.435293 $li  $L=0.205 $W=0.170000 $SI_W=0.17 $TYPE=10 $DIR=0 $LLX=0.700000 $LLY=1.725000 $URX=0.905000 $URY=1.895000 $lvl=2
RgA7 A:8 Mmp0:g 173.519989 $poly  $L=0.54 $W=0.150000 $SI_W=0.15 $TYPE=10 $DIR=1 $LLX=0.830000 $LLY=3.355000 $URX=0.980000 $URY=3.895000 $lvl=3
RgA8 Mmp0:g A:9 477.619080 $poly  $L=1.545 $W=0.150000 $SI_W=0.15 $TYPE=10 $DIR=1 $LLX=0.830000 $LLY=1.810000 $URX=0.980000 $URY=3.355000 $lvl=3
RgA9 A:9 A:10 34.134449 $poly  $L=0.1645 $W=0.270000 $SI_W=0.27 $TYPE=10 $DIR=1 $LLX=0.770000 $LLY=1.645500 $URX=1.040000 $URY=1.810000 $lvl=3
RgA10 A:10 Mmn0:g 333.427948 $poly  $L=1.0375 $W=0.150000 $SI_W=0.15 $TYPE=10 $DIR=1 $LLX=0.830000 $LLY=0.607500 $URX=0.980000 $URY=1.645000 $lvl=3
RgA11 Mmn0:g A:11 116.483322 $poly  $L=0.3625 $W=0.150000 $SI_W=0.15 $TYPE=10 $DIR=1 $LLX=0.830000 $LLY=0.245000 $URX=0.980000 $URY=0.607500 $lvl=3
RjA12 A:13 A:17 152.000000 $mcon  $L=0.17 $W=0.17 $A=0.0289 $VC=0 $SAVL=0 $SAVC=0 $SI_A=0.0289 $COVER_DIR=0 $LLX=0.000000 $LLY=0.000000 $URX=0.170000 $URY=0.170000 $lvl=6
RiA13 A:9 A:14 15.000000 $licon  $L=0.17 $W=0.17 $A=0.0289 $VC=0 $SAVL=0 $SAVC=0 $SI_A=0.0289 $COVER_DIR=0 $LLX=0.000000 $LLY=0.000000 $URX=0.170000 $URY=0.170000 $lvl=7
*
*|NET VSS! 1.5766e-15
*|P (VSS! X 0 1.0100 0.0050) // $llx=1.0100 $lly=0.0050 $urx=1.0100 $ury=0.0050 $lvl=1
*|I (Mmn0:s Mmn0 s X 0 0.9805 0.6075) // $llx=0.9805 $lly=0.6075 $urx=0.9805 $ury=0.6075 $lvl=4
*|I (Mmn0:b Mmn0 b X 0 0.9050 0.6075) // $llx=0.9050 $lly=0.6075 $urx=0.9050 $ury=0.6075 $lvl=8
*|I (Mmn2:s Mmn2 s X 0 1.3195 0.7750) // $llx=1.3195 $lly=0.7750 $urx=1.3195 $ury=0.7750 $lvl=4
*|I (Mmn2:b Mmn2 b X 0 1.3950 0.7750) // $llx=1.3950 $lly=0.7750 $urx=1.3950 $ury=0.7750 $lvl=8
*|I (Mmn2@1:s Mmn2@1 s X 0 1.9005 0.7750) // $llx=1.9005 $lly=0.7750 $urx=1.9005 $ury=0.7750 $lvl=4
*|I (Mmn2@1:b Mmn2@1 b X 0 1.8250 0.7750) // $llx=1.8250 $lly=0.7750 $urx=1.8250 $ury=0.7750 $lvl=8
*|I (Mmn1:s Mmn1 s X 0 0.3995 0.6075) // $llx=0.3995 $lly=0.6075 $urx=0.3995 $ury=0.6075 $lvl=4
*|I (Mmn1:b Mmn1 b X 0 0.4750 0.6075) // $llx=0.4750 $lly=0.6075 $urx=0.4750 $ury=0.6075 $lvl=8
*|S (VSS!:1 2.0400 1.1550) // $llx=2.0400 $lly=1.1550 $urx=2.0400 $ury=1.1550 $lvl=2
*|S (VSS!:3 2.0400 0.7750) // $llx=2.0400 $lly=0.7750 $urx=2.0400 $ury=0.7750 $lvl=2
*|S (VSS!:4 2.0400 0.0000) // $llx=2.0400 $lly=0.0000 $urx=2.0400 $ury=0.0000 $lvl=2
*|S (VSS!:5 1.1500 0.0000) // $llx=1.1500 $lly=0.0000 $urx=1.1500 $ury=0.0000 $lvl=2
*|S (VSS!:6 1.1500 0.0000) // $llx=1.1500 $lly=0.0000 $urx=1.1500 $ury=0.0000 $lvl=4
*|S (VSS!:8 2.2995 0.0000) // $llx=2.2995 $lly=0.0000 $urx=2.2995 $ury=0.0000 $lvl=2
*|S (VSS!:9 0.2600 0.0000) // $llx=0.2600 $lly=0.0000 $urx=0.2600 $ury=0.0000 $lvl=2
*|S (VSS!:10 0.0000 0.0000) // $llx=0.0000 $lly=0.0000 $urx=0.0000 $ury=0.0000 $lvl=2
*|S (VSS!:12 1.1800 0.7750) // $llx=1.1800 $lly=0.7750 $urx=1.1800 $ury=0.7750 $lvl=2
*|S (VSS!:13 1.1800 1.1550) // $llx=1.1800 $lly=1.1550 $urx=1.1800 $ury=1.1550 $lvl=2
*|S (VSS!:15 0.2600 0.6050) // $llx=0.2600 $lly=0.6050 $urx=0.2600 $ury=0.6050 $lvl=2
*|S (VSS!:16 0.2600 0.8200) // $llx=0.2600 $lly=0.8200 $urx=0.2600 $ury=0.8200 $lvl=2
*|S (VSS!:17 2.3000 0.0000) // $llx=2.3000 $lly=0.0000 $urx=2.3000 $ury=0.0000 $lvl=1
*|S (VSS!:18 1.1500 0.0000) // $llx=1.1500 $lly=0.0000 $urx=1.1500 $ury=0.0000 $lvl=1
*|S (VSS!:19 0.0000 0.0000) // $llx=0.0000 $lly=0.0000 $urx=0.0000 $ury=0.0000 $lvl=1
ReE61 VSS!:17 VSS!:18 0.359375 $metal1  $L=1.15 $W=0.400000 $SI_W=0.4 $TYPE=10 $DIR=0 $LLX=1.150000 $LLY=-0.199500 $URX=2.300000 $URY=0.200000 $lvl=1
ReE62 VSS!:18 VSS! 0.043750 $metal1  $L=0.14 $W=0.400000 $SI_W=0.4 $TYPE=10 $DIR=0 $LLX=1.010000 $LLY=-0.199500 $URX=1.150000 $URY=0.200000 $lvl=1
ReE63 VSS! VSS!:19 0.315625 $metal1  $L=1.01 $W=0.400000 $SI_W=0.4 $TYPE=10 $DIR=0 $LLX=0.000000 $LLY=-0.199500 $URX=1.010000 $URY=0.200000 $lvl=1
RfE64 VSS!:1 VSS!:3 28.611765 $li  $L=0.38 $W=0.170000 $SI_W=0.17 $TYPE=10 $DIR=1 $LLX=1.955000 $LLY=0.775000 $URX=2.125000 $URY=1.155000 $lvl=2
RfE65 VSS!:3 VSS!:4 55.328377 $li  $L=0.77475 $W=0.170000 $SI_W=0.17 $TYPE=10 $DIR=1 $LLX=1.955000 $LLY=0.000000 $URX=2.125000 $URY=0.775000 $lvl=2
RfE66 VSS!:4 VSS!:5 45.580799 $li  $L=0.89025 $W=0.250000 $SI_W=0.25 $TYPE=10 $DIR=0 $LLX=1.150000 $LLY=-0.124500 $URX=2.040000 $URY=0.125000 $lvl=2
RfE67 VSS!:4 VSS!:8 13.273600 $li  $L=0.25925 $W=0.250000 $SI_W=0.25 $TYPE=10 $DIR=0 $LLX=2.040000 $LLY=-0.124500 $URX=2.299000 $URY=0.125000 $lvl=2
RfE68 VSS!:5 VSS!:9 45.555199 $li  $L=0.88975 $W=0.250000 $SI_W=0.25 $TYPE=10 $DIR=0 $LLX=0.260000 $LLY=-0.124500 $URX=1.150000 $URY=0.125000 $lvl=2
RfE69 VSS!:9 VSS!:10 13.324800 $li  $L=0.26025 $W=0.250000 $SI_W=0.25 $TYPE=10 $DIR=0 $LLX=0.000000 $LLY=-0.124500 $URX=0.260000 $URY=0.125000 $lvl=2
RfE70 VSS!:5 VSS!:12 55.341179 $li  $L=0.775 $W=0.170000 $SI_W=0.17 $TYPE=10 $DIR=1 $LLX=1.095000 $LLY=0.000000 $URX=1.265000 $URY=0.775000 $lvl=2
RfE71 VSS!:12 VSS!:13 28.611765 $li  $L=0.38 $W=0.170000 $SI_W=0.17 $TYPE=10 $DIR=1 $LLX=1.095000 $LLY=0.775000 $URX=1.265000 $URY=1.155000 $lvl=2
RfE72 VSS!:9 VSS!:15 42.528378 $li  $L=0.60475 $W=0.170000 $SI_W=0.17 $TYPE=10 $DIR=1 $LLX=0.175000 $LLY=0.000000 $URX=0.345000 $URY=0.605000 $lvl=2
RfE73 VSS!:15 VSS!:16 16.188236 $li  $L=0.215 $W=0.170000 $SI_W=0.17 $TYPE=10 $DIR=1 $LLX=0.175000 $LLY=0.605000 $URX=0.345000 $URY=0.820000 $lvl=2
RhE74 Mmn2@1:s VSS!:3 7.500000 $licon_diff  $A=0.0578 $VC=0 $SAVL=0 $SAVC=0 $SI_A=0.0578 $COVER_DIR=0 $LLX=0.000000 $LLY=0.000000 $URX=-0.057800 $URY=-2.000000 $lvl=5
RhE75 Mmn0:s VSS!:12 7.500000 $licon_diff  $A=0.0578 $VC=0 $SAVL=0 $SAVC=0 $SI_A=0.0578 $COVER_DIR=0 $LLX=0.000000 $LLY=0.000000 $URX=-0.057800 $URY=-2.000000 $lvl=5
RhE76 Mmn1:s VSS!:15 15.000000 $licon_diff  $L=0.17 $W=0.17 $A=0.0289 $VC=0 $SAVL=0 $SAVC=0 $SI_A=0.0289 $COVER_DIR=0 $LLX=0.000000 $LLY=0.000000 $URX=0.170000 $URY=0.170000 $lvl=5
Rh_3_E77 VSS!:6 VSS!:5 3.750000 $licon_diff  $A=0.1156 $VC=0 $SAVL=0 $SAVC=0 $SI_A=0.1156 $COVER_DIR=0 $LLX=0.000000 $LLY=0.000000 $URX=-0.115600 $URY=-4.000000 $lvl=5
RjE78 VSS!:5 VSS!:18 38.000000 $mcon  $A=0.1156 $VC=0 $SAVL=0 $SAVC=0 $SI_A=0.1156 $COVER_DIR=0 $LLX=0.000000 $LLY=0.000000 $URX=-0.115600 $URY=-4.000000 $lvl=6
RmwE79 Mmn0:b VSS! 0.001000 $FOX $W=1000000 $SI_W=1000000 $TYPE=1 $DIR=0
RmwE80 Mmn2:s Mmn0:s 0.001000 $diff $W=1000000 $SI_W=1000000 $TYPE=1 $DIR=0
RmwE81 Mmn2:b VSS! 0.001000 $FOX $W=1000000 $SI_W=1000000 $TYPE=1 $DIR=0
RmwE82 Mmn2@1:b VSS! 0.001000 $FOX $W=1000000 $SI_W=1000000 $TYPE=1 $DIR=0
RmwE83 Mmn1:b VSS! 0.001000 $FOX $W=1000000 $SI_W=1000000 $TYPE=1 $DIR=0
*
*|NET VDD! 1.86974e-15
*|P (VDD! X 0 1.0500 4.1450) // $llx=1.0500 $lly=4.1450 $urx=1.0500 $ury=4.1450 $lvl=1
*|I (Mmp1:b Mmp1 b X 0 0.4750 3.3550) // $llx=0.4750 $lly=3.3550 $urx=0.4750 $ury=3.3550 $lvl=8
*|I (Mmp2:s Mmp2 s X 0 1.3195 3.0150) // $llx=1.3195 $lly=3.0150 $urx=1.3195 $ury=3.0150 $lvl=4
*|I (Mmp2:b Mmp2 b X 0 1.3950 3.0150) // $llx=1.3950 $lly=3.0150 $urx=1.3950 $ury=3.0150 $lvl=8
*|I (Mmp2@1:s Mmp2@1 s X 0 1.9005 3.0150) // $llx=1.9005 $lly=3.0150 $urx=1.9005 $ury=3.0150 $lvl=4
*|I (Mmp2@1:b Mmp2@1 b X 0 1.8250 3.0150) // $llx=1.8250 $lly=3.0150 $urx=1.8250 $ury=3.0150 $lvl=8
*|I (Mmp0:s Mmp0 s X 0 0.9805 3.3550) // $llx=0.9805 $lly=3.3550 $urx=0.9805 $ury=3.3550 $lvl=4
*|I (Mmp0:b Mmp0 b X 0 0.9050 3.3550) // $llx=0.9050 $lly=3.3550 $urx=0.9050 $ury=3.3550 $lvl=8
*|S (VDD!:1 1.1800 2.2850) // $llx=1.1800 $lly=2.2850 $urx=1.1800 $ury=2.2850 $lvl=2
*|S (VDD!:3 1.1800 3.0150) // $llx=1.1800 $lly=3.0150 $urx=1.1800 $ury=3.0150 $lvl=2
*|S (VDD!:4 1.1500 4.1400) // $llx=1.1500 $lly=4.1400 $urx=1.1500 $ury=4.1400 $lvl=2
*|S (VDD!:5 1.1500 4.1400) // $llx=1.1500 $lly=4.1400 $urx=1.1500 $ury=4.1400 $lvl=4
*|S (VDD!:7 2.0400 4.1400) // $llx=2.0400 $lly=4.1400 $urx=2.0400 $ury=4.1400 $lvl=2
*|S (VDD!:9 2.0400 3.0150) // $llx=2.0400 $lly=3.0150 $urx=2.0400 $ury=3.0150 $lvl=2
*|S (VDD!:10 2.0400 2.2850) // $llx=2.0400 $lly=2.2850 $urx=2.0400 $ury=2.2850 $lvl=2
*|S (VDD!:11 2.2995 4.1400) // $llx=2.2995 $lly=4.1400 $urx=2.2995 $ury=4.1400 $lvl=2
*|S (VDD!:12 2.3000 4.1400) // $llx=2.3000 $lly=4.1400 $urx=2.3000 $ury=4.1400 $lvl=1
*|S (VDD!:13 1.1500 4.1400) // $llx=1.1500 $lly=4.1400 $urx=1.1500 $ury=4.1400 $lvl=1
*|S (VDD!:14 0.0000 4.1400) // $llx=0.0000 $lly=4.1400 $urx=0.0000 $ury=4.1400 $lvl=1
CD1 Mmp2@1:s VSS! 2.15024e-18 $lvl=4
CD2 Mmp2:s VSS! 1.64891e-18 $lvl=4
CD3 VDD!:13 VSS! 8.25702e-18 $lvl=1
CD4 VDD!:12 VSS! 4.43792e-18 $lvl=1
CD5 VDD!:14 VSS! 4.91929e-18 $lvl=1
CD6 VDD!:1 VSS! 5.93111e-18 $lvl=2
CD7 VDD!:10 VSS! 8.09833e-18 $lvl=2
CD8 VDD!:11 VSS! 1.93109e-18 $lvl=2
CD9 VDD!:7 VSS! 1.5312e-18 $lvl=2
CD10 VDD!:5 VSS! 1.20761e-18 $lvl=4
CD11 VDD!:4 VSS! 3.26775e-18 $lvl=2
CD12 VDD! VSS! 2.57774e-18 $lvl=1
CD13 Mmp2:s n1:3 5.49749e-19 $lvl1=4 $lvl2=2
CD14 VDD!:14 n1:3 3.29153e-19 $lvl1=1 $lvl2=2
CD15 VDD!:4 n1:3 3.00358e-18 $lvl1=2 $lvl2=2
CD16 VDD!:1 n1:3 2.4975e-17 $lvl1=2 $lvl2=2
CD17 VDD! n1:3 4.02494e-18 $lvl1=1 $lvl2=2
CD18 VDD! n1:4 1.60218e-18 $lvl1=1 $lvl2=2
CD19 VDD!:1 n1 6.75365e-18 $lvl1=2 $lvl2=2
CD20 VDD!:13 n1 2.80958e-18 $lvl1=1 $lvl2=2
CD21 VDD!:4 n1 8.01854e-18 $lvl1=2 $lvl2=2
CD22 VDD!:1 n1:4 9.8148e-18 $lvl1=2 $lvl2=2
CD23 VDD!:1 Mmp1:s 1.52529e-18 $lvl1=2 $lvl2=4
CD24 VDD!:13 n1:3 1.64926e-18 $lvl1=1 $lvl2=2
CD25 VDD!:4 Mmp1:s 2.0788e-18 $lvl1=2 $lvl2=4
CD26 VDD! n0:47 8.15521e-18 $lvl1=1 $lvl2=1
CD27 VDD! n0:43 8.12051e-18 $lvl1=1 $lvl2=1
CD28 VDD! n0:40 7.88789e-18 $lvl1=1 $lvl2=1
CD29 VDD!:4 n0:23 7.14e-18 $lvl1=2 $lvl2=3
CD30 VDD!:7 n0:15 6.94549e-18 $lvl1=2 $lvl2=3
CD31 VDD!:14 n0:25 6.56263e-18 $lvl1=1 $lvl2=2
CD32 VDD! n0:29 5.9879e-18 $lvl1=1 $lvl2=2
CD33 VDD! n0:17 5.57592e-18 $lvl1=1 $lvl2=3
CD34 VDD!:13 n0:25 4.19818e-18 $lvl1=1 $lvl2=2
CD35 VDD! n0:35 4.15622e-18 $lvl1=1 $lvl2=2
CD36 VDD! n0:45 4.01415e-18 $lvl1=1 $lvl2=1
CD37 VDD! n0:44 3.53435e-18 $lvl1=1 $lvl2=1
CD38 VDD!:10 n0:17 3.22768e-18 $lvl1=2 $lvl2=3
CD39 VDD!:4 n0:38 3.17486e-18 $lvl1=2 $lvl2=1
CD40 VDD!:5 n0:25 2.95231e-18 $lvl1=4 $lvl2=2