*
*|DSPF 1.5
*
*|DATE "Wed Jan  8 19:45:11 2025"
*|VENDOR "Cadence Design Systems"
*|PROGRAM "Cadence Quantus Extraction"
*|VERSION "22.1.0-p089 Linux 64 bit - (Thu Jan 19 11:47:08 PST 2023)"
*|DESIGN OR3X2_HS
*|DIVIDER /
*|DELIMITER :
*|DeviceFingerDelim "@"
*|BUSBIT []
*|GLOBAL_TEMPERATURE 25
*|OPERATING_TEMPERATURE 25

** *VIA_COVERAGE_CODES
** *index FF FS FP FU SF SS SP SU PF PS PP PU UF US UP UU X_by_Y
** * "FF" stands for Full landing and Full coverage
** *0 0 0 0 0 0 0 0 0 0 0 0 0 0 0 0 0
** *1 0 0 0 0 0 0 0 0 0 0 0 0 0 0 0 1 1x1
** *2 0 0 0 0 0 0 0 0 0 0 0 0 0 0 1 0 1x1
** *3 0 0 0 0 0 0 0 0 0 0 0 0 0 1 0 0 1x1
** *4 0 0 0 0 0 0 0 0 0 0 0 0 1 0 0 0 1x1
** *5 0 0 0 0 0 0 0 0 0 0 0 1 0 0 0 0 1x1
** *6 0 0 0 0 0 0 0 0 0 0 1 0 0 0 0 0 1x1
** *7 0 0 0 0 0 0 0 0 0 1 0 0 0 0 0 0 1x1
** *8 0 0 0 0 0 0 0 0 1 0 0 0 0 0 0 0 1x1
** *9 0 0 0 0 0 0 0 1 0 0 0 0 0 0 0 0 1x1
** *10 0 0 0 0 0 0 1 0 0 0 0 0 0 0 0 0 1x1
** *11 0 0 0 0 0 1 0 0 0 0 0 0 0 0 0 0 1x1
** *12 0 0 0 0 1 0 0 0 0 0 0 0 0 0 0 0 1x1
** *13 0 0 0 1 0 0 0 0 0 0 0 0 0 0 0 0 1x1
** *14 0 0 1 0 0 0 0 0 0 0 0 0 0 0 0 0 1x1
** *15 0 1 0 0 0 0 0 0 0 0 0 0 0 0 0 0 1x1
** *16 1 0 0 0 0 0 0 0 0 0 0 0 0 0 0 0 1x1

** *RESISTOR_TYPES
** *1 SHORTING_ELEMENT
** *2 PRES_NG
** *3 PRES_PG
** *4 PRES_NF
** *5 PRES_PF
** *6 TCN_NDIFF
** *7 TCN_PDIFF
** *8 TCN_NFIELD
** *9 TCN_PFIELD
** *10 QUALITY_EXTRACTED
** *11 GCNLAND
** *12 TCNLAND
** *13 DUMMY
** *14 RSD
** *15 BRIDGE

** *RESISTOR_CURRENT_DIRECTION
** *0 HORIZONTAL
** *1 VERTICAL
** *2 45 DEGREE

** QRC_TECH_DIR /vols/wfo_devel/projects/reference_SKY130/tech/sky130_release_0.0.4/quantus/extraction/typical 
** HIERARCHICAL_SPLIT_PINS_DELIMITER '%'
** caps2d version: 10
*
.SUBCKT  OR3X2_HS A B C Y
*
*Net Section
*
*|GROUND_NET VSS!
*
*LAYER_MAP
*0 none
*1 metal1
*2 li
*3 poly
*4 diff
*5 licon_diff
*6 mcon
*7 licon
*8 FOX

*|NET B 7.93705e-16
*|P (B X 0 0.9350 1.4600) // $llx=0.9350 $lly=1.4600 $urx=0.9350 $ury=1.4600 $lvl=1
*|I (Mmp1:g Mmp1 g X 0 0.9050 3.3550) // $llx=0.9050 $lly=3.3550 $urx=0.9050 $ury=3.3550 $lvl=3
*|I (Mmn1:g Mmn1 g X 0 0.9050 0.6075) // $llx=0.9050 $lly=0.6075 $urx=0.9050 $ury=0.6075 $lvl=3
*|S (B:8 0.9050 3.8950) // $llx=0.9050 $lly=3.8950 $urx=0.9050 $ury=3.8950 $lvl=3
*|S (B:9 0.9050 1.0950) // $llx=0.9050 $lly=1.0950 $urx=0.9050 $ury=1.0950 $lvl=3
*|S (B:10 0.9050 0.9300) // $llx=0.9050 $lly=0.9300 $urx=0.9050 $ury=0.9300 $lvl=3
*|S (B:11 0.9050 0.2450) // $llx=0.9050 $lly=0.2450 $urx=0.9050 $ury=0.2450 $lvl=3
*|S (B:12 1.0850 1.0950) // $llx=1.0850 $lly=1.0950 $urx=1.0850 $ury=1.0950 $lvl=2
*|S (B:13 0.9200 1.0950) // $llx=0.9200 $lly=1.0950 $urx=0.9200 $ury=1.0950 $lvl=2
*|S (B:14 0.9050 1.0950) // $llx=0.9050 $lly=1.0950 $urx=0.9050 $ury=1.0950 $lvl=2
*|S (B:15 0.6700 1.0950) // $llx=0.6700 $lly=1.0950 $urx=0.6700 $ury=1.0950 $lvl=2
*|S (B:16 0.9200 2.1050) // $llx=0.9200 $lly=2.1050 $urx=0.9200 $ury=2.1050 $lvl=1
*|S (B:17 0.9200 1.0950) // $llx=0.9200 $lly=1.0950 $urx=0.9200 $ury=1.0950 $lvl=1
*|S (B:18 0.9200 0.8650) // $llx=0.9200 $lly=0.8650 $urx=0.9200 $ury=0.8650 $lvl=1
CB1 Mmn1:g VSS! 1.35588e-18 $lvl=3
CB2 B:8 VSS! 2.51732e-18 $lvl=3
CB3 B:16 VSS! 8.07415e-18 $lvl=1
CB4 B:18 VSS! 5.63554e-18 $lvl=1
CB5 B:12 VSS! 2.87165e-18 $lvl=2
CB6 B:15 VSS! 3.43374e-18 $lvl=2
CB7 B:13 VSS! 2.26168e-18 $lvl=2
CB8 B:9 VSS! 1.61019e-17 $lvl=3
CB9 B:8 n1:4 1.17569e-18 $lvl1=3 $lvl2=2
CB10 B:8 n1:3 6.30329e-17 $lvl1=3 $lvl2=2
CB11 B:8 n2:4 1.13337e-18 $lvl1=3 $lvl2=2
CB12 B:8 n2 6.29882e-17 $lvl1=3 $lvl2=2
CB13 B:15 n0:30 3.19488e-18 $lvl1=2 $lvl2=2
CB14 B:18 n0:48 2.87904e-18 $lvl1=1 $lvl2=1
CB15 B:8 n0:25 2.54184e-18 $lvl1=3 $lvl2=2
CB16 B:9 n0:30 1.73565e-18 $lvl1=3 $lvl2=2
CB17 B:16 n0:47 1.45704e-18 $lvl1=1 $lvl2=1
CB18 B:16 n0:40 1.44108e-18 $lvl1=1 $lvl2=1
CB19 B:16 n0:45 1.40026e-18 $lvl1=1 $lvl2=1
CB20 B:13 n0:49 1.33703e-18 $lvl1=2 $lvl2=1
CB21 B:13 n0:47 1.29865e-18 $lvl1=2 $lvl2=1
CB22 B:9 Mmn1:d 1.25599e-18 $lvl1=3 $lvl2=4
CB23 B:12 n0:47 1.22468e-18 $lvl1=2 $lvl2=1
CB24 B:16 n0:44 1.21271e-18 $lvl1=1 $lvl2=1
CB25 B:15 n0:51 1.02081e-18 $lvl1=2 $lvl2=1
CB26 B:18 n0:30 9.93427e-19 $lvl1=1 $lvl2=2
CB27 B:16 n0:42 9.32867e-19 $lvl1=1 $lvl2=1
CB28 B:9 n0:17 8.6287e-19 $lvl1=3 $lvl2=3
CB29 B:13 n0:51 7.9004e-19 $lvl1=2 $lvl2=1
CB30 B:18 n0:45 7.62909e-19 $lvl1=1 $lvl2=1
CB31 B:15 n0:37 7.15793e-19 $lvl1=2 $lvl2=2
CB32 B:16 n0:51 7.14862e-19 $lvl1=1 $lvl2=1
CB33 B:8 n0:42 6.79604e-19 $lvl1=3 $lvl2=1
CB34 B:13 n0:30 6.62102e-19 $lvl1=2 $lvl2=2
CB35 B:12 n0:38 6.57708e-19 $lvl1=2 $lvl2=2
CB36 Mmn1:g n0:30 5.63523e-19 $lvl1=3 $lvl2=2
CB37 B:16 n0:49 5.62576e-19 $lvl1=1 $lvl2=1
CB38 B:18 n0:46 5.52869e-19 $lvl1=1 $lvl2=1
CB39 B:9 n0:38 4.61907e-19 $lvl1=3 $lvl2=2
CB40 B:12 n0:17 4.24053e-19 $lvl1=2 $lvl2=3
CB41 B:8 n0:40 3.98384e-19 $lvl1=3 $lvl2=1
CB42 B:16 n0:48 3.94151e-19 $lvl1=1 $lvl2=1
CB43 B:15 n0:33 3.52565e-19 $lvl1=2 $lvl2=2
CB44 B:8 n0:43 3.42818e-19 $lvl1=3 $lvl2=1
CB45 B:15 n0:49 3.39814e-19 $lvl1=2 $lvl2=1
CB46 B:9 n0 3.28239e-19 $lvl1=3 $lvl2=3
CB47 B:8 n0:29 3.15751e-19 $lvl1=3 $lvl2=2
CB48 B:18 n0:33 2.9699e-19 $lvl1=1 $lvl2=2
CB49 B:9 Mmn2:d 2.89993e-19 $lvl1=3 $lvl2=4
CB50 B:16 n0:38 2.89675e-19 $lvl1=1 $lvl2=2
CB51 B:13 n0:38 2.39171e-19 $lvl1=2 $lvl2=2
CB52 B:18 n0:44 2.37652e-19 $lvl1=1 $lvl2=1
CB53 B:16 n0:46 2.25811e-19 $lvl1=1 $lvl2=1
CB54 B:12 n0:48 2.19054e-19 $lvl1=2 $lvl2=1
CB55 B:16 n0:17 2.05324e-19 $lvl1=1 $lvl2=3
CB56 B:12 n0:30 2.00219e-19 $lvl1=2 $lvl2=2
CB57 B:18 n0:43 1.86848e-19 $lvl1=1 $lvl2=1
CB58 B:16 n0:30 1.86408e-19 $lvl1=1 $lvl2=2
CB59 B:18 n0:38 1.80002e-19 $lvl1=1 $lvl2=2
CB60 B:16 n0:25 1.71946e-19 $lvl1=1 $lvl2=2
CB61 B:9 n0:47 1.68828e-19 $lvl1=3 $lvl2=1
CB62 B:13 n0:48 1.66527e-19 $lvl1=2 $lvl2=1
CB63 B:12 n0:45 1.6584e-19 $lvl1=2 $lvl2=1
CB64 B:16 n0:43 4.93828e-18 $lvl1=1 $lvl2=1
CB65 B:18 n0:47 1.45707e-17 $lvl1=1 $lvl2=1
CB66 B:18 n0:49 3.48284e-17 $lvl1=1 $lvl2=1
CB67 Mmn1:g n0:37 6.65709e-17 $lvl1=3 $lvl2=2
CB68 B:13 n0:37 6.07153e-18 $lvl1=2 $lvl2=2
CB69 B:18 n0:51 1.02571e-17 $lvl1=1 $lvl2=1
CB70 B:18 n0:37 3.97031e-18 $lvl1=1 $lvl2=2
CB71 B:12 n0:37 8.76323e-18 $lvl1=2 $lvl2=2
CB72 B:9 n0:37 8.05337e-18 $lvl1=3 $lvl2=2
CB73 B:9 VSS!:13 3.80402e-18 $lvl1=3 $lvl2=2
CB74 B:18 VSS!:19 2.74941e-18 $lvl1=1 $lvl2=1
CB75 B:12 VSS!:17 2.35075e-18 $lvl1=2 $lvl2=2
CB76 B:18 VSS!:17 2.05274e-18 $lvl1=1 $lvl2=2
CB77 B:13 VSS!:13 1.05632e-18 $lvl1=2 $lvl2=2
CB78 B:18 VSS!:13 9.98414e-19 $lvl1=1 $lvl2=2
CB79 B:9 Mmn1:s 9.58599e-19 $lvl1=3 $lvl2=4
CB80 B:16 VSS!:19 9.02117e-19 $lvl1=1 $lvl2=1
CB81 B:9 Mmn3:s 8.19934e-19 $lvl1=3 $lvl2=4
CB82 B:15 VSS!:17 8.73297e-18 $lvl1=2 $lvl2=2
CB83 B:13 VSS!:17 4.99382e-18 $lvl1=2 $lvl2=2
CB84 B:12 VSS!:13 5.08962e-18 $lvl1=2 $lvl2=2
CB85 B:9 VSS!:17 8.93197e-18 $lvl1=3 $lvl2=2
CB86 Mmn1:g VSS!:17 6.42609e-17 $lvl1=3 $lvl2=2
CB87 Mmn1:g VSS!:9 7.68167e-18 $lvl1=3 $lvl2=2
CB88 B:8 VDD!:1 3.86465e-18 $lvl1=3 $lvl2=2
CB89 B:9 VDD! 1.74506e-18 $lvl1=3 $lvl2=1
CB90 B:15 VDD! 1.24692e-18 $lvl1=2 $lvl2=1
CB91 B:16 VDD!:1 1.0839e-18 $lvl1=1 $lvl2=2
CB92 B:8 VDD!:5 1.39294e-17 $lvl1=3 $lvl2=2
CB93 B:16 VDD! 7.91707e-18 $lvl1=1 $lvl2=1
CB94 B:18 VDD! 5.18295e-18 $lvl1=1 $lvl2=1
CB95 B:13 C:16 3.38821e-18 $lvl1=2 $lvl2=1
CB96 B:9 Mmn2:g 2.98086e-18 $lvl1=3 $lvl2=3
CB97 B:9 C:14 2.20623e-18 $lvl1=3 $lvl2=2
CB98 B:9 C:9 1.87944e-18 $lvl1=3 $lvl2=3
CB99 B:15 C:14 1.68798e-18 $lvl1=2 $lvl2=2
CB100 B:9 C:16 1.41251e-18 $lvl1=3 $lvl2=1
CB101 B:13 C:14 9.51659e-19 $lvl1=2 $lvl2=2
CB102 B:12 C:14 8.48838e-19 $lvl1=2 $lvl2=2
CB103 B:16 C:9 8.35419e-19 $lvl1=1 $lvl2=3
CB104 B:15 Mmn2:g 7.16622e-19 $lvl1=2 $lvl2=3
CB105 B:12 C:16 6.14686e-19 $lvl1=2 $lvl2=1
CB106 B:15 C:9 6.09424e-19 $lvl1=2 $lvl2=3
CB107 B:18 C:16 3.21796e-17 $lvl1=1 $lvl2=1
CB108 B:16 C:15 1.65816e-17 $lvl1=1 $lvl2=1
CB109 B:15 C:16 4.8799e-18 $lvl1=2 $lvl2=1
CB110 B:16 C:14 1.44371e-17 $lvl1=1 $lvl2=2
CB111 B:16 C:16 6.80952e-17 $lvl1=1 $lvl2=1
ReB13 B:16 B 0.310096 $metal1  $L=0.645 $W=0.260000 $SI_W=0.26 $TYPE=10 $DIR=1 $LLX=0.790000 $LLY=1.460000 $URX=1.050000 $URY=2.105000 $lvl=1
ReB14 B B:17 0.175481 $metal1  $L=0.365 $W=0.260000 $SI_W=0.26 $TYPE=10 $DIR=1 $LLX=0.790000 $LLY=1.095000 $URX=1.050000 $URY=1.460000 $lvl=1
ReB15 B:17 B:18 0.110577 $metal1  $L=0.23 $W=0.260000 $SI_W=0.26 $TYPE=10 $DIR=1 $LLX=0.790000 $LLY=0.865000 $URX=1.050000 $URY=1.095000 $lvl=1
RfB16 B:12 B:13 12.423529 $li  $L=0.165 $W=0.170000 $SI_W=0.17 $TYPE=10 $DIR=0 $LLX=0.920000 $LLY=1.010000 $URX=1.085000 $URY=1.180000 $lvl=2
RfB17 B:13 B:14 1.129412 $li  $L=0.015 $W=1000000 $SI_W=1000000 $TYPE=1,10 $DIR=0 $LLX=0.905000 $LLY=1.010000 $URX=0.920000 $URY=1.180000 $lvl=2
RfB18 B:14 B:15 17.694118 $li  $L=0.235 $W=0.170000 $SI_W=0.17 $TYPE=10 $DIR=0 $LLX=0.670000 $LLY=1.010000 $URX=0.905000 $URY=1.180000 $lvl=2
RgB19 B:8 Mmp1:g 173.519989 $poly  $L=0.54 $W=0.150000 $SI_W=0.15 $TYPE=10 $DIR=1 $LLX=0.830000 $LLY=3.355000 $URX=0.980000 $URY=3.895000 $lvl=3
RgB20 Mmp1:g B:9 707.372437 $poly  $L=2.26 $W=0.150000 $SI_W=0.15 $TYPE=10 $DIR=1 $LLX=0.830000 $LLY=1.095000 $URX=0.980000 $URY=3.355000 $lvl=3
RgB21 B:9 B:10 34.134449 $poly  $L=0.1645 $W=0.270000 $SI_W=0.27 $TYPE=10 $DIR=1 $LLX=0.770000 $LLY=0.930500 $URX=1.040000 $URY=1.095000 $lvl=3
RgB22 B:10 Mmn1:g 103.674629 $poly  $L=0.3225 $W=0.150000 $SI_W=0.15 $TYPE=10 $DIR=1 $LLX=0.830000 $LLY=0.607500 $URX=0.980000 $URY=0.930000 $lvl=3
RgB23 Mmn1:g B:11 116.483322 $poly  $L=0.3625 $W=0.150000 $SI_W=0.15 $TYPE=10 $DIR=1 $LLX=0.830000 $LLY=0.245000 $URX=0.980000 $URY=0.607500 $lvl=3
RjB24 B:13 B:17 152.000000 $mcon  $L=0.17 $W=0.17 $A=0.0289 $VC=0 $SAVL=0 $SAVC=0 $SI_A=0.0289 $COVER_DIR=0 $LLX=0.000000 $LLY=0.000000 $URX=0.170000 $URY=0.170000 $lvl=6
RiB25 B:9 B:14 15.000000 $licon  $L=0.17 $W=0.17 $A=0.0289 $VC=0 $SAVL=0 $SAVC=0 $SI_A=0.0289 $COVER_DIR=0 $LLX=0.000000 $LLY=0.000000 $URX=0.170000 $URY=0.170000 $lvl=7
*
*|NET VSS! 1.82602e-15
*|P (VSS! X 0 1.5250 0.0050) // $llx=1.5250 $lly=0.0050 $urx=1.5250 $ury=0.0050 $lvl=1
*|I (Mmn1:s Mmn1 s X 0 0.8295 0.6075) // $llx=0.8295 $lly=0.6075 $urx=0.8295 $ury=0.6075 $lvl=4
*|I (Mmn1:b Mmn1 b X 0 0.9050 0.6075) // $llx=0.9050 $lly=0.6075 $urx=0.9050 $ury=0.6075 $lvl=8
*|I (Mmn2:s Mmn2 s X 0 0.5505 0.6075) // $llx=0.5505 $lly=0.6075 $urx=0.5505 $ury=0.6075 $lvl=4
*|I (Mmn2:b Mmn2 b X 0 0.4750 0.6075) // $llx=0.4750 $lly=0.6075 $urx=0.4750 $ury=0.6075 $lvl=8
*|I (Mmn3:s Mmn3 s X 0 1.7495 0.7750) // $llx=1.7495 $lly=0.7750 $urx=1.7495 $ury=0.7750 $lvl=4
*|I (Mmn3:b Mmn3 b X 0 1.8250 0.7750) // $llx=1.8250 $lly=0.7750 $urx=1.8250 $ury=0.7750 $lvl=8
*|I (Mmn3@1:s Mmn3@1 s X 0 2.3305 0.7750) // $llx=2.3305 $lly=0.7750 $urx=2.3305 $ury=0.7750 $lvl=4
*|I (Mmn3@1:b Mmn3@1 b X 0 2.2550 0.7750) // $llx=2.2550 $lly=0.7750 $urx=2.2550 $ury=0.7750 $lvl=8
*|I (Mmn0:s Mmn0 s X 0 1.4105 0.6075) // $llx=1.4105 $lly=0.6075 $urx=1.4105 $ury=0.6075 $lvl=4
*|I (Mmn0:b Mmn0 b X 0 1.3350 0.6075) // $llx=1.3350 $lly=0.6075 $urx=1.3350 $ury=0.6075 $lvl=8
*|S (VSS!:1 2.4700 1.1550) // $llx=2.4700 $lly=1.1550 $urx=2.4700 $ury=1.1550 $lvl=2
*|S (VSS!:3 2.4700 0.7750) // $llx=2.4700 $lly=0.7750 $urx=2.4700 $ury=0.7750 $lvl=2
*|S (VSS!:4 2.4700 0.0000) // $llx=2.4700 $lly=0.0000 $urx=2.4700 $ury=0.0000 $lvl=2
*|S (VSS!:5 1.6100 0.0000) // $llx=1.6100 $lly=0.0000 $urx=1.6100 $ury=0.0000 $lvl=2
*|S (VSS!:6 1.3800 0.0000) // $llx=1.3800 $lly=0.0000 $urx=1.3800 $ury=0.0000 $lvl=2
*|S (VSS!:7 1.3800 0.0000) // $llx=1.3800 $lly=0.0000 $urx=1.3800 $ury=0.0000 $lvl=4
*|S (VSS!:9 0.6900 0.0000) // $llx=0.6900 $lly=0.0000 $urx=0.6900 $ury=0.0000 $lvl=2
*|S (VSS!:10 0.0000 0.0000) // $llx=0.0000 $lly=0.0000 $urx=0.0000 $ury=0.0000 $lvl=2
*|S (VSS!:11 2.7595 0.0000) // $llx=2.7595 $lly=0.0000 $urx=2.7595 $ury=0.0000 $lvl=2
*|S (VSS!:13 1.6100 0.7750) // $llx=1.6100 $lly=0.7750 $urx=1.6100 $ury=0.7750 $lvl=2
*|S (VSS!:14 1.6100 1.1550) // $llx=1.6100 $lly=1.1550 $urx=1.6100 $ury=1.1550 $lvl=2
*|S (VSS!:16 0.6900 0.6050) // $llx=0.6900 $lly=0.6050 $urx=0.6900 $ury=0.6050 $lvl=2
*|S (VSS!:17 0.6900 0.8200) // $llx=0.6900 $lly=0.8200 $urx=0.6900 $ury=0.8200 $lvl=2
*|S (VSS!:18 2.7600 0.0000) // $llx=2.7600 $lly=0.0000 $urx=2.7600 $ury=0.0000 $lvl=1
*|S (VSS!:19 1.3800 0.0000) // $llx=1.3800 $lly=0.0000 $urx=1.3800 $ury=0.0000 $lvl=1
*|S (VSS!:20 0.0000 0.0000) // $llx=0.0000 $lly=0.0000 $urx=0.0000 $ury=0.0000 $lvl=1
ReF74 VSS!:18 VSS! 0.385937 $metal1  $L=1.235 $W=0.400000 $SI_W=0.4 $TYPE=10 $DIR=0 $LLX=1.525000 $LLY=-0.199500 $URX=2.760000 $URY=0.200000 $lvl=1
ReF75 VSS! VSS!:19 0.045313 $metal1  $L=0.145 $W=0.400000 $SI_W=0.4 $TYPE=10 $DIR=0 $LLX=1.380000 $LLY=-0.199500 $URX=1.525000 $URY=0.200000 $lvl=1
ReF76 VSS!:19 VSS!:20 0.431250 $metal1  $L=1.38 $W=0.400000 $SI_W=0.4 $TYPE=10 $DIR=0 $LLX=0.000000 $LLY=-0.199500 $URX=1.380000 $URY=0.200000 $lvl=1
RfF77 VSS!:1 VSS!:3 28.611765 $li  $L=0.38 $W=0.170000 $SI_W=0.17 $TYPE=10 $DIR=1 $LLX=2.385000 $LLY=0.775000 $URX=2.555000 $URY=1.155000 $lvl=2
RfF78 VSS!:3 VSS!:4 55.328377 $li  $L=0.77475 $W=0.170000 $SI_W=0.17 $TYPE=10 $DIR=1 $LLX=2.385000 $LLY=0.000000 $URX=2.555000 $URY=0.775000 $lvl=2
RfF79 VSS!:4 VSS!:5 44.031998 $li  $L=0.86 $W=0.250000 $SI_W=0.25 $TYPE=10 $DIR=0 $LLX=1.610000 $LLY=-0.124500 $URX=2.470000 $URY=0.125000 $lvl=2
RfF80 VSS!:5 VSS!:6 11.788800 $li  $L=0.23025 $W=0.250000 $SI_W=0.25 $TYPE=10 $DIR=0 $LLX=1.380000 $LLY=-0.124500 $URX=1.610000 $URY=0.125000 $lvl=2
RfF81 VSS!:6 VSS!:9 35.315201 $li  $L=0.68975 $W=0.250000 $SI_W=0.25 $TYPE=10 $DIR=0 $LLX=0.690000 $LLY=-0.124500 $URX=1.380000 $URY=0.125000 $lvl=2
RfF82 VSS!:9 VSS!:10 35.340801 $li  $L=0.69025 $W=0.250000 $SI_W=0.25 $TYPE=10 $DIR=0 $LLX=0.000000 $LLY=-0.124500 $URX=0.690000 $URY=0.125000 $lvl=2
RfF83 VSS!:4 VSS!:11 14.809600 $li  $L=0.28925 $W=0.250000 $SI_W=0.25 $TYPE=10 $DIR=0 $LLX=2.470000 $LLY=-0.124500 $URX=2.759000 $URY=0.125000 $lvl=2
RfF84 VSS!:5 VSS!:13 55.328377 $li  $L=0.77475 $W=0.170000 $SI_W=0.17 $TYPE=10 $DIR=1 $LLX=1.525000 $LLY=0.000000 $URX=1.695000 $URY=0.775000 $lvl=2
RfF85 VSS!:13 VSS!:14 28.611765 $li  $L=0.38 $W=0.170000 $SI_W=0.17 $TYPE=10 $DIR=1 $LLX=1.525000 $LLY=0.775000 $URX=1.695000 $URY=1.155000 $lvl=2
RfF86 VSS!:9 VSS!:16 42.528378 $li  $L=0.60475 $W=0.170000 $SI_W=0.17 $TYPE=10 $DIR=1 $LLX=0.605000 $LLY=0.000000 $URX=0.775000 $URY=0.605000 $lvl=2
RfF87 VSS!:16 VSS!:17 16.188236 $li  $L=0.215 $W=0.170000 $SI_W=0.17 $TYPE=10 $DIR=1 $LLX=0.605000 $LLY=0.605000 $URX=0.775000 $URY=0.820000 $lvl=2
RhF88 Mmn3@1:s VSS!:3 7.500000 $licon_diff  $A=0.0578 $VC=0 $SAVL=0 $SAVC=0 $SI_A=0.0578 $COVER_DIR=0 $LLX=0.000000 $LLY=0.000000 $URX=-0.057800 $URY=-2.000000 $lvl=5
RhF89 Mmn3:s VSS!:13 7.500000 $licon_diff  $A=0.0578 $VC=0 $SAVL=0 $SAVC=0 $SI_A=0.0578 $COVER_DIR=0 $LLX=0.000000 $LLY=0.000000 $URX=-0.057800 $URY=-2.000000 $lvl=5
RhF90 Mmn1:s VSS!:16 15.000000 $licon_diff  $L=0.17 $W=0.17 $A=0.0289 $VC=0 $SAVL=0 $SAVC=0 $SI_A=0.0289 $COVER_DIR=0 $LLX=0.000000 $LLY=0.000000 $URX=0.170000 $URY=0.170000 $lvl=5
Rh_3_F91 VSS!:7 VSS!:6 3.000000 $licon_diff  $A=0.1445 $VC=0 $SAVL=0 $SAVC=0 $SI_A=0.1445 $COVER_DIR=0 $LLX=0.000000 $LLY=0.000000 $URX=-0.144500 $URY=-5.000000 $lvl=5
RjF92 VSS!:6 VSS!:19 30.400000 $mcon  $A=0.1445 $VC=0 $SAVL=0 $SAVC=0 $SI_A=0.1445 $COVER_DIR=0 $LLX=0.000000 $LLY=0.000000 $URX=-0.144500 $URY=-5.000000 $lvl=6
RmwF93 Mmn1:b VSS! 0.001000 $FOX $W=1000000 $SI_W=1000000 $TYPE=1 $DIR=0
RmwF94 Mmn2:s Mmn1:s 0.001000 $diff $W=1000000 $SI_W=1000000 $TYPE=1 $DIR=0
RmwF95 Mmn2:b VSS! 0.001000 $FOX $W=1000000 $SI_W=1000000 $TYPE=1 $DIR=0
RmwF96 Mmn3:b VSS! 0.001000 $FOX $W=1000000 $SI_W=1000000 $TYPE=1 $DIR=0
RmwF97 Mmn3@1:b VSS! 0.001000 $FOX $W=1000000 $SI_W=1000000 $TYPE=1 $DIR=0
RmwF98 Mmn0:s Mmn3:s 0.001000 $diff $W=1000000 $SI_W=1000000 $TYPE=1 $DIR=0
RmwF99 Mmn0:b VSS! 0.001000 $FOX $W=1000000 $SI_W=1000000 $TYPE=1 $DIR=0
*
*|NET A 7.66604e-16
*|P (A X 0 1.3950 1.8600) // $llx=1.3950 $lly=1.8600 $urx=1.3950 $ury=1.8600 $lvl=1
*|I (Mmp0:g Mmp0 g X 0 1.3350 3.3550) // $llx=1.3350 $lly=3.3550 $urx=1.3350 $ury=3.3550 $lvl=3
*|I (Mmn0:g Mmn0 g X 0 1.3350 0.6075) // $llx=1.3350 $lly=0.6075 $urx=1.3350 $ury=0.6075 $lvl=3
*|S (A:8 1.3350 3.8950) // $llx=1.3350 $lly=3.8950 $urx=1.3350 $ury=3.8950 $lvl=3
*|S (A:9 1.3350 1.9500) // $llx=1.3350 $lly=1.9500 $urx=1.3350 $ury=1.9500 $lvl=3
*|S (A:10 1.3350 1.7850) // $llx=1.3350 $lly=1.7850 $urx=1.3350 $ury=1.7850 $lvl=3
*|S (A:11 1.3350 0.2450) // $llx=1.3350 $lly=0.2450 $urx=1.3350 $ury=0.2450 $lvl=3
*|S (A:12 1.7150 1.9500) // $llx=1.7150 $lly=1.9500 $urx=1.7150 $ury=1.9500 $lvl=2
*|S (A:13 1.3800 1.9500) // $llx=1.3800 $lly=1.9500 $urx=1.3800 $ury=1.9500 $lvl=2
*|S (A:14 1.3350 1.9500) // $llx=1.3350 $lly=1.9500 $urx=1.3350 $ury=1.9500 $lvl=2
*|S (A:15 1.3800 2.5050) // $llx=1.3800 $lly=2.5050 $urx=1.3800 $ury=2.5050 $lvl=1
*|S (A:16 1.3800 1.9500) // $llx=1.3800 $lly=1.9500 $urx=1.3800 $ury=1.9500 $lvl=1
*|S (A:17 1.3800 1.2650) // $llx=1.3800 $lly=1.2650 $urx=1.3800 $ury=1.2650 $lvl=1
CA1 Mmn0:g VSS! 1.22116e-18 $lvl=3
CA2 A:8 VSS! 2.33723e-18 $lvl=3
CA3 A:15 VSS! 4.952e-18 $lvl=1
CA4 A:17 VSS! 3.57534e-18 $lvl=1
CA5 A:14 VSS! 5.79419e-18 $lvl=2
CA6 A:13 VSS! 4.32533e-18 $lvl=2
CA7 A:9 VSS! 1.75138e-17 $lvl=3
CA8 A VSS! 3.1177e-18 $lvl=1
CA9 A:15 n1:4 1.09406e-18 $lvl1=1 $lvl2=2
CA10 A:8 n1:4 9.50462e-19 $lvl1=3 $lvl2=2
CA11 A:9 n1:4 4.45608e-19 $lvl1=3 $lvl2=2
CA12 A:14 n1:4 3.54586e-19 $lvl1=2 $lvl2=2
CA13 A:8 n1:3 6.15259e-17 $lvl1=3 $lvl2=2
CA14 A n0:44 3.21595e-18 $lvl1=1 $lvl2=1
CA15 A:17 n0:39 3.17721e-18 $lvl1=1 $lvl2=2
CA16 A:17 n0:38 2.94005e-18 $lvl1=1 $lvl2=2
CA17 A:13 n0:45 2.47632e-18 $lvl1=2 $lvl2=1
CA18 A:9 n0:23 2.29694e-18 $lvl1=3 $lvl2=3
CA19 A:14 n0:39 2.25804e-18 $lvl1=2 $lvl2=2
CA20 A:9 n0:38 1.98752e-18 $lvl1=3 $lvl2=2
CA21 A:14 n0:44 1.75264e-18 $lvl1=2 $lvl2=1
CA22 A:13 n0:38 1.59686e-18 $lvl1=2 $lvl2=2
CA23 A:15 n0:42 1.43667e-18 $lvl1=1 $lvl2=1
CA24 A:17 n0:44 1.25404e-18 $lvl1=1 $lvl2=1
CA25 A:14 n0:23 1.18552e-18 $lvl1=2 $lvl2=3
CA26 A:15 n0:40 1.11313e-18 $lvl1=1 $lvl2=1
CA27 A:13 n0:44 1.01819e-18 $lvl1=2 $lvl2=1
CA28 A:17 n0:49 8.92906e-19 $lvl1=1 $lvl2=1
CA29 A:13 n0:39 7.61162e-19 $lvl1=2 $lvl2=2
CA30 A:17 n0:17 7.0786e-19 $lvl1=1 $lvl2=3
CA31 A:17 n0:48 6.91035e-19 $lvl1=1 $lvl2=1
CA32 A n0:43 6.47947e-19 $lvl1=1 $lvl2=1
CA33 A:17 n0:37 6.43352e-19 $lvl1=1 $lvl2=2
CA34 A:13 n0:17 6.24584e-19 $lvl1=2 $lvl2=3
CA35 A:14 n0:43 5.49959e-19 $lvl1=2 $lvl2=1
CA36 A:14 n0:15 5.30454e-19 $lvl1=2 $lvl2=3
CA37 A:13 n0:43 5.29738e-19 $lvl1=2 $lvl2=1
CA38 A:9 n0 5.18457e-19 $lvl1=3 $lvl2=3
CA39 A:9 n0:45 5.02585e-19 $lvl1=3 $lvl2=1
CA40 A:17 n0:43 4.74171e-19 $lvl1=1 $lvl2=1
CA41 A:17 n0:51 4.07085e-19 $lvl1=1 $lvl2=1
CA42 A:9 n0:43 3.93766e-19 $lvl1=3 $lvl2=1
CA43 A:9 n0:39 3.46086e-19 $lvl1=3 $lvl2=2
CA44 A:8 n0:42 3.44624e-19 $lvl1=3 $lvl2=1
CA45 A:9 n0:15 3.14475e-19 $lvl1=3 $lvl2=3
CA46 A n0:42 2.57133e-19 $lvl1=1 $lvl2=1
CA47 Mmn0:g n0:17 2.5625e-19 $lvl1=3 $lvl2=3
CA48 A:9 n0:44 2.49401e-19 $lvl1=3 $lvl2=1
CA49 A:8 n0:25 2.24273e-19 $lvl1=3 $lvl2=2
CA50 A:17 n0:40 2.15464e-19 $lvl1=1 $lvl2=1
CA51 A:9 n0:37 1.94342e-19 $lvl1=3 $lvl2=2
CA52 A:15 n0:47 1.86809e-19 $lvl1=1 $lvl2=1
CA53 A:13 n0:47 1.75716e-19 $lvl1=2 $lvl2=1
CA54 A:14 n0 1.63583e-19 $lvl1=2 $lvl2=3
CA55 A:15 n0:29 1.62205e-19 $lvl1=1 $lvl2=2
CA56 A n0:47 1.6201e-19 $lvl1=1 $lvl2=1
CA57 A:8 n0:43 1.49885e-19 $lvl1=3 $lvl2=1
CA58 A:17 n0:42 1.49041e-19 $lvl1=1 $lvl2=1
CA59 A:9 n0:47 1.39951e-19 $lvl1=3 $lvl2=1
CA60 A:15 n0:46 1.37712e-19 $lvl1=1 $lvl2=1
CA61 A n0:46 1.3721e-19 $lvl1=1 $lvl2=1
CA62 A n0:40 1.36519e-19 $lvl1=1 $lvl2=1
CA63 A n0:39 1.28898e-19 $lvl1=1 $lvl2=2
CA64 A:14 n0:47 1.15022e-19 $lvl1=2 $lvl2=1
CA65 A:17 n0:46 4.39412e-18 $lvl1=1 $lvl2=1
CA66 A:15 n0:43 3.87449e-17 $lvl1=1 $lvl2=1
CA67 A:14 n0:45 5.137e-18 $lvl1=2 $lvl2=1
CA68 A:17 n0:47 3.77297e-17 $lvl1=1 $lvl2=1
CA69 Mmn0:g n0:37 6.76271e-17 $lvl1=3 $lvl2=2
CA70 A n0:45 1.13707e-17 $lvl1=1 $lvl2=1
CA71 A:15 n0:44 3.53418e-17 $lvl1=1 $lvl2=1
CA72 A:14 n0:38 4.83371e-18 $lvl1=2 $lvl2=2
CA73 A:9 n0:17 4.54327e-18 $lvl1=3 $lvl2=3
CA74 A:15 n0:45 7.6061e-18 $lvl1=1 $lvl2=1
CA75 A:14 n0:17 4.52368e-18 $lvl1=2 $lvl2=3
CA76 A:17 n0:45 3.21981e-17 $lvl1=1 $lvl2=1
CA77 A:17 VSS!:13 3.747e-18 $lvl1=1 $lvl2=2
CA78 A:9 VSS!:13 1.69341e-18 $lvl1=3 $lvl2=2
CA79 A:14 VSS!:13 1.06636e-18 $lvl1=2 $lvl2=2
CA80 A:17 VSS!:19 9.21246e-19 $lvl1=1 $lvl2=1
CA81 A:13 VSS!:13 6.39238e-19 $lvl1=2 $lvl2=2
CA82 Mmn0:g VSS!:13 4.03895e-17 $lvl1=3 $lvl2=2
CA83 Mmn0:g VSS!:9 9.41034e-18 $lvl1=3 $lvl2=2
CA84 A:9 Mmp3:s 2.24314e-18 $lvl1=3 $lvl2=4
CA85 A VDD! 1.58751e-18 $lvl1=1 $lvl2=1
CA86 A:14 VDD! 1.13732e-18 $lvl1=2 $lvl2=1
CA87 A:15 VDD!:14 8.75765e-19 $lvl1=1 $lvl2=1
CA88 A:14 VDD!:11 6.6903e-19 $lvl1=2 $lvl2=2
CA89 A:8 VDD!:14 4.92431e-19 $lvl1=3 $lvl2=1
CA90 A:13 VDD! 4.86201e-19 $lvl1=2 $lvl2=1
CA91 A:9 VDD!:1 9.8529e-18 $lvl1=3 $lvl2=2
CA92 A:8 VDD!:5 1.18947e-17 $lvl1=3 $lvl2=2
CA93 A:14 VDD!:1 1.23774e-17 $lvl1=2 $lvl2=2
CA94 A:15 VDD! 4.70685e-18 $lvl1=1 $lvl2=1
CA95 A:9 VDD! 6.70142e-18 $lvl1=3 $lvl2=1
CA96 A:17 VDD! 5.16997e-18 $lvl1=1 $lvl2=1
CA97 A:8 VDD!:1 7.14427e-17 $lvl1=3 $lvl2=2
CA98 A:13 VDD!:1 4.86455e-18 $lvl1=2 $lvl2=2
CA99 A:15 VDD!:1 9.59785e-18 $lvl1=1 $lvl2=2
CA100 A:14 Y:5 2.76347e-18 $lvl1=2 $lvl2=2
CA101 A:14 Y 1.51802e-18 $lvl1=2 $lvl2=1
CA102 A:14 Y:1 1.44353e-18 $lvl1=2 $lvl2=2
CA103 A:17 Y 1.35843e-18 $lvl1=1 $lvl2=1
CA104 A:15 Y:11 1.29021e-18 $lvl1=1 $lvl2=1
CA105 A:15 Y 1.27488e-18 $lvl1=1 $lvl2=1
CA106 A:17 Y:14 1.09128e-18 $lvl1=1 $lvl2=1
CA107 A Y 6.29579e-19 $lvl1=1 $lvl2=1
CA108 A:9 Y:1 5.88762e-19 $lvl1=3 $lvl2=2
CA109 A:15 Y:1 5.32619e-19 $lvl1=1 $lvl2=2
CA110 A:9 Y:5 4.68952e-19 $lvl1=3 $lvl2=2
CA111 A:17 Y:11 4.3945e-19 $lvl1=1 $lvl2=1
CA112 A:15 Y:5 3.47073e-19 $lvl1=1 $lvl2=2
CA113 A:15 C:15 3.37538e-18 $lvl1=1 $lvl2=1
CA114 A:9 C:9 2.40678e-18 $lvl1=3 $lvl2=3
CA115 A:13 C:14 2.19992e-18 $lvl1=2 $lvl2=2
CA116 A:17 C:16 1.87048e-18 $lvl1=1 $lvl2=1
CA117 A:15 C:14 1.34522e-18 $lvl1=1 $lvl2=2
CA118 A:15 C:16 1.05307e-18 $lvl1=1 $lvl2=1
CA119 A:17 C:14 1.04572e-18 $lvl1=1 $lvl2=2
CA120 A:14 C:9 8.47861e-19 $lvl1=2 $lvl2=3
CA121 A C:16 5.62119e-19 $lvl1=1 $lvl2=1
CA122 A:17 C:15 5.2445e-19 $lvl1=1 $lvl2=1
CA123 A C:15 4.51577e-19 $lvl1=1 $lvl2=1
CA124 A:14 C:14 6.27297e-18 $lvl1=2 $lvl2=2
CA125 A:9 C:14 4.54543e-18 $lvl1=3 $lvl2=2
CA126 Mmn0:g B:9 2.45826e-18 $lvl1=3 $lvl2=3
CA127 A:17 B:13 2.10059e-18 $lvl1=1 $lvl2=2
CA128 A:9 B:9 1.97886e-18 $lvl1=3 $lvl2=3
CA129 A:9 B:16 1.59826e-18 $lvl1=3 $lvl2=1
CA130 A:17 B:12 1.57372e-18 $lvl1=1 $lvl2=2
CA131 A:14 B:9 8.60318e-19 $lvl1=2 $lvl2=3
CA132 A:17 B:9 7.72325e-19 $lvl1=1 $lvl2=3
CA133 A:9 B:12 6.46007e-19 $lvl1=3 $lvl2=2
CA134 A:9 B:13 4.73721e-19 $lvl1=3 $lvl2=2
CA135 A:14 B:12 4.57786e-19 $lvl1=2 $lvl2=2
CA136 A:14 B:13 4.39245e-19 $lvl1=2 $lvl2=2
CA137 Mmn0:g B:12 3.63396e-19 $lvl1=3 $lvl2=2
CA138 A:15 B:16 1.90973e-17 $lvl1=1 $lvl2=1
CA139 A:17 B:18 1.73946e-17 $lvl1=1 $lvl2=1
CA140 A B:16 1.84876e-17 $lvl1=1 $lvl2=1
CA141 A:17 B:16 4.46786e-17 $lvl1=1 $lvl2=1
CA142 A:13 B:16 4.74205e-18 $lvl1=2 $lvl2=1
CA143 A:14 B:16 4.0789e-18 $lvl1=2 $lvl2=1
ReA1 A:15 A:16 0.266827 $metal1  $L=0.555 $W=0.260000 $SI_W=0.26 $TYPE=10 $DIR=1 $LLX=1.250000 $LLY=1.950000 $URX=1.510000 $URY=2.505000 $lvl=1
ReA2 A:16 A 0.043269 $metal1  $L=0.09 $W=0.260000 $SI_W=0.26 $TYPE=10 $DIR=1 $LLX=1.250000 $LLY=1.860000 $URX=1.510000 $URY=1.950000 $lvl=1
ReA3 A A:17 0.286058 $metal1  $L=0.595 $W=0.260000 $SI_W=0.26 $TYPE=10 $DIR=1 $LLX=1.250000 $LLY=1.265000 $URX=1.510000 $URY=1.860000 $lvl=1
RfA4 A:12 A:13 25.223530 $li  $L=0.335 $W=0.170000 $SI_W=0.17 $TYPE=10 $DIR=0 $LLX=1.380000 $LLY=1.865000 $URX=1.715000 $URY=2.035000 $lvl=2
RfA5 A:13 A:14 3.388236 $li  $L=0.045 $W=1000000 $SI_W=1000000 $TYPE=1,10 $DIR=0 $LLX=1.335000 $LLY=1.865000 $URX=1.380000 $URY=2.035000 $lvl=2
RgA6 A:8 Mmp0:g 173.519989 $poly  $L=0.54 $W=0.150000 $SI_W=0.15 $TYPE=10 $DIR=1 $LLX=1.260000 $LLY=3.355000 $URX=1.410000 $URY=3.895000 $lvl=3
RgA7 Mmp0:g A:9 432.632416 $poly  $L=1.405 $W=0.150000 $SI_W=0.15 $TYPE=10 $DIR=1 $LLX=1.260000 $LLY=1.950000 $URX=1.410000 $URY=3.355000 $lvl=3
RgA8 A:9 A:10 34.134449 $poly  $L=0.1645 $W=0.270000 $SI_W=0.27 $TYPE=10 $DIR=1 $LLX=1.200000 $LLY=1.785500 $URX=1.470000 $URY=1.950000 $lvl=3
RgA9 A:10 Mmn0:g 378.414642 $poly  $L=1.1775 $W=0.150000 $SI_W=0.15 $TYPE=10 $DIR=1 $LLX=1.260000 $LLY=0.607500 $URX=1.410000 $URY=1.785000 $lvl=3
RgA10 Mmn0:g A:11 116.483322 $poly  $L=0.3625 $W=0.150000 $SI_W=0.15 $TYPE=10 $DIR=1 $LLX=1.260000 $LLY=0.245000 $URX=1.410000 $URY=0.607500 $lvl=3
RjA11 A:13 A:16 152.000000 $mcon  $L=0.17 $W=0.17 $A=0.0289 $VC=0 $SAVL=0 $SAVC=0 $SI_A=0.0289 $COVER_DIR=0 $LLX=0.000000 $LLY=0.000000 $URX=0.170000 $URY=0.170000 $lvl=6
RiA12 A:9 A:14 15.000000 $licon  $L=0.17 $W=0.17 $A=0.0289 $VC=0 $SAVL=0 $SAVC=0 $SI_A=0.0289 $COVER_DIR=0 $LLX=0.000000 $LLY=0.000000 $URX=0.170000 $URY=0.170000 $lvl=7
*
*|NET C 7.48365e-16
*|P (C X 0 0.4750 1.7100) // $llx=0.4750 $lly=1.7100 $urx=0.4750 $ury=1.7100 $lvl=1
*|I (Mmp2:g Mmp2 g X 0 0.4750 3.3550) // $llx=0.4750 $lly=3.3550 $urx=0.4750 $ury=3.3550 $lvl=3
*|I (Mmn2:g Mmn2 g X 0 0.4750 0.6075) // $llx=0.4750 $lly=0.6075 $urx=0.4750 $ury=0.6075 $lvl=3
*|S (C:8 0.4750 3.8950) // $llx=0.4750 $lly=3.8950 $urx=0.4750 $ury=3.8950 $lvl=3
*|S (C:9 0.4750 1.9500) // $llx=0.4750 $lly=1.9500 $urx=0.4750 $ury=1.9500 $lvl=3
*|S (C:10 0.4750 1.7850) // $llx=0.4750 $lly=1.7850 $urx=0.4750 $ury=1.7850 $lvl=3
*|S (C:11 0.4750 0.2450) // $llx=0.4750 $lly=0.2450 $urx=0.4750 $ury=0.2450 $lvl=3
*|S (C:12 0.8550 1.9500) // $llx=0.8550 $lly=1.9500 $urx=0.8550 $ury=1.9500 $lvl=2
*|S (C:13 0.4750 1.9500) // $llx=0.4750 $lly=1.9500 $urx=0.4750 $ury=1.9500 $lvl=2
*|S (C:14 0.4600 1.9500) // $llx=0.4600 $lly=1.9500 $urx=0.4600 $ury=1.9500 $lvl=2
*|S (C:15 0.4600 2.3550) // $llx=0.4600 $lly=2.3550 $urx=0.4600 $ury=2.3550 $lvl=1
*|S (C:16 0.4600 1.9500) // $llx=0.4600 $lly=1.9500 $urx=0.4600 $ury=1.9500 $lvl=1
*|S (C:17 0.4600 1.1150) // $llx=0.4600 $lly=1.1150 $urx=0.4600 $ury=1.1150 $lvl=1
CC1 Mmn2:g VSS! 9.90251e-19 $lvl=3
CC2 C:8 VSS! 2.54326e-18 $lvl=3
CC3 C:16 VSS! 9.46526e-18 $lvl=1
CC4 C:15 VSS! 6.53742e-18 $lvl=1
CC5 C:14 VSS! 1.08482e-17 $lvl=2
CC6 C:9 VSS! 1.94171e-17 $lvl=3
CC7 C:9 n2:4 7.55773e-19 $lvl1=3 $lvl2=2
CC8 C:15 n2 7.11053e-19 $lvl1=1 $lvl2=2
CC9 C:14 n2 6.46365e-19 $lvl1=2 $lvl2=2
CC10 C:15 n2:4 1.88399e-18 $lvl1=1 $lvl2=2
CC11 C:8 n2 6.16483e-17 $lvl1=3 $lvl2=2
CC12 C:8 n2:4 1.30678e-18 $lvl1=3 $lvl2=2
CC13 C:14 n2:4 1.50132e-18 $lvl1=2 $lvl2=2
CC14 C:16 n0:49 2.91756e-18 $lvl1=1 $lvl2=1
CC15 C:16 n0:40 2.88207e-18 $lvl1=1 $lvl2=1
CC16 C:15 n0:42 2.57945e-18 $lvl1=1 $lvl2=1
CC17 C:15 n0:29 1.73966e-18 $lvl1=1 $lvl2=2
CC18 C:16 n0:33 1.65695e-18 $lvl1=1 $lvl2=2
CC19 C:14 n0:43 1.58407e-18 $lvl1=2 $lvl2=1
CC20 C:14 n0:40 1.55231e-18 $lvl1=2 $lvl2=1
CC21 C:16 n0:43 1.40832e-18 $lvl1=1 $lvl2=1
CC22 C:14 n0:30 1.33192e-18 $lvl1=2 $lvl2=2
CC23 C:14 n0:29 1.31594e-18 $lvl1=2 $lvl2=2
CC24 C:8 n0:29 1.22305e-18 $lvl1=3 $lvl2=2
CC25 C:15 n0:25 1.19635e-18 $lvl1=1 $lvl2=2
CC26 C:14 n0:25 1.12367e-18 $lvl1=2 $lvl2=2
CC27 C:16 n0:42 8.58991e-19 $lvl1=1 $lvl2=1
CC28 C:16 n0:25 7.22882e-19 $lvl1=1 $lvl2=2
CC29 C:14 n0:51 7.10505e-19 $lvl1=2 $lvl2=1
CC30 C:9 n0:30 6.9108e-19 $lvl1=3 $lvl2=2
CC31 C:16 n0:45 6.83089e-19 $lvl1=1 $lvl2=1
CC32 C:16 n0:47 6.79093e-19 $lvl1=1 $lvl2=1
CC33 C:9 n0:25 6.69612e-19 $lvl1=3 $lvl2=2
CC34 C:15 n0:51 6.07998e-19 $lvl1=1 $lvl2=1
CC35 C:15 n0:28 6.01043e-19 $lvl1=1 $lvl2=2
CC36 C:8 n0:40 5.42301e-19 $lvl1=3 $lvl2=1
CC37 C:15 n0:44 5.16425e-19 $lvl1=1 $lvl2=1
CC38 C:16 n0:44 4.65209e-19 $lvl1=1 $lvl2=1
CC39 C:9 n0:40 4.61908e-19 $lvl1=3 $lvl2=1
CC40 C:9 n0:29 4.51639e-19 $lvl1=3 $lvl2=2
CC41 C:16 n0:29 4.4371e-19 $lvl1=1 $lvl2=2
CC42 C:14 n0:42 4.11746e-19 $lvl1=2 $lvl2=1
CC43 C:16 n0:48 3.87421e-19 $lvl1=1 $lvl2=1
CC44 Mmn2:g n0:37 3.5534e-19 $lvl1=3 $lvl2=2
CC45 C:9 n0:43 3.21884e-19 $lvl1=3 $lvl2=1
CC46 C:8 n0:42 3.11909e-19 $lvl1=3 $lvl2=1
CC47 C:15 n0:45 2.83199e-19 $lvl1=1 $lvl2=1
CC48 C:9 n0:51 2.79889e-19 $lvl1=3 $lvl2=1
CC49 C:16 Mmn2:d 2.6942e-19 $lvl1=1 $lvl2=4
CC50 C:14 n0:38 2.65379e-19 $lvl1=2 $lvl2=2
CC51 C:14 n0:28 2.44071e-19 $lvl1=2 $lvl2=2
CC52 C:9 Mmp2:d 2.37903e-19 $lvl1=3 $lvl2=4
CC53 C:14 Mmp2:d 2.32462e-19 $lvl1=2 $lvl2=4
CC54 C:16 n0:28 2.18648e-19 $lvl1=1 $lvl2=2
CC55 C:16 n0:37 2.17077e-19 $lvl1=1 $lvl2=2
CC56 C:14 n0:17 2.13447e-19 $lvl1=2 $lvl2=3
CC57 C:14 Mmn2:d 2.10523e-19 $lvl1=2 $lvl2=4
CC58 C:16 n0:46 2.08995e-19 $lvl1=1 $lvl2=1
CC59 Mmn2:g n0:51 1.89445e-19 $lvl1=3 $lvl2=1
CC60 C:15 n0:43 6.80131e-18 $lvl1=1 $lvl2=1
CC61 C:15 n0:40 7.85304e-18 $lvl1=1 $lvl2=1
CC62 Mmn2:g n0:30 7.04475e-17 $lvl1=3 $lvl2=2
CC63 C:16 n0:51 1.75912e-17 $lvl1=1 $lvl2=1
CC64 C:16 n0:30 5.4789e-18 $lvl1=1 $lvl2=2
CC65 C:8 n0:25 1.34534e-16 $lvl1=3 $lvl2=2
CC66 C:16 VSS!:20 2.50657e-18 $lvl1=1 $lvl2=1
CC67 C:16 VSS!:19 2.4967e-18 $lvl1=1 $lvl2=1
CC68 C:16 VSS!:17 2.22147e-18 $lvl1=1 $lvl2=2
CC69 Mmn2:g VSS!:10 6.16324e-19 $lvl1=3 $lvl2=2
CC70 C:16 VSS!:10 5.895e-19 $lvl1=1 $lvl2=2
CC71 C:15 VSS!:19 5.05322e-19 $lvl1=1 $lvl2=1
CC72 C:14 VSS!:17 4.53644e-19 $lvl1=2 $lvl2=2
CC73 C:14 VSS!:13 4.17329e-19 $lvl1=2 $lvl2=2
CC74 Mmn2:g VSS!:17 6.65984e-17 $lvl1=3 $lvl2=2
CC75 Mmn2:g VSS!:9 7.04332e-18 $lvl1=3 $lvl2=2
CC76 C:14 VDD!:1 1.82689e-18 $lvl1=2 $lvl2=2
CC77 C:15 VDD!:14 1.26773e-18 $lvl1=1 $lvl2=1
CC78 C:16 VDD!:14 9.62815e-19 $lvl1=1 $lvl2=1
CC79 C:9 VDD!:1 7.64207e-19 $lvl1=3 $lvl2=2
CC80 C:16 VDD!:15 7.60862e-19 $lvl1=1 $lvl2=1
CC81 C:15 VDD!:15 7.13729e-19 $lvl1=1 $lvl2=1
CC82 C:15 VDD!:1 5.76273e-19 $lvl1=1 $lvl2=2
CC83 C:8 VDD!:1 5.18188e-19 $lvl1=3 $lvl2=2
CC84 C:8 VDD!:5 1.00325e-17 $lvl1=3 $lvl2=2
CC85 C:9 VDD! 1.39595e-17 $lvl1=3 $lvl2=1
CC86 C:16 VDD! 2.89544e-17 $lvl1=1 $lvl2=1
CC87 C:15 VDD! 1.36442e-17 $lvl1=1 $lvl2=1
CC88 C:14 VDD! 1.26922e-17 $lvl1=2 $lvl2=1
ReC26 C:15 C:16 0.194712 $metal1  $L=0.405 $W=0.260000 $SI_W=0.26 $TYPE=10 $DIR=1 $LLX=0.330000 $LLY=1.950000 $URX=0.590000 $URY=2.355000 $lvl=1
ReC27 C:16 C 0.115385 $metal1  $L=0.24 $W=0.260000 $SI_W=0.26 $TYPE=10 $DIR=1 $LLX=0.330000 $LLY=1.710000 $URX=0.590000 $URY=1.950000 $lvl=1