*
*|DSPF 1.5
*
*|DATE "Wed Jan  8 19:47:57 2025"
*|VENDOR "Cadence Design Systems"
*|PROGRAM "Cadence Quantus Extraction"
*|VERSION "22.1.0-p089 Linux 64 bit - (Thu Jan 19 11:47:08 PST 2023)"
*|DESIGN OR3X1_HS
*|DIVIDER /
*|DELIMITER :
*|DeviceFingerDelim "@"
*|BUSBIT []
*|GLOBAL_TEMPERATURE 25
*|OPERATING_TEMPERATURE 25

** *VIA_COVERAGE_CODES
** *index FF FS FP FU SF SS SP SU PF PS PP PU UF US UP UU X_by_Y
** * "FF" stands for Full landing and Full coverage
** *0 0 0 0 0 0 0 0 0 0 0 0 0 0 0 0 0
** *1 0 0 0 0 0 0 0 0 0 0 0 0 0 0 0 1 1x1
** *2 0 0 0 0 0 0 0 0 0 0 0 0 0 0 1 0 1x1
** *3 0 0 0 0 0 0 0 0 0 0 0 0 0 1 0 0 1x1
** *4 0 0 0 0 0 0 0 0 0 0 0 0 1 0 0 0 1x1
** *5 0 0 0 0 0 0 0 0 0 0 0 1 0 0 0 0 1x1
** *6 0 0 0 0 0 0 0 0 0 0 1 0 0 0 0 0 1x1
** *7 0 0 0 0 0 0 0 0 0 1 0 0 0 0 0 0 1x1
** *8 0 0 0 0 0 0 0 0 1 0 0 0 0 0 0 0 1x1
** *9 0 0 0 0 0 0 0 1 0 0 0 0 0 0 0 0 1x1
** *10 0 0 0 0 0 0 1 0 0 0 0 0 0 0 0 0 1x1
** *11 0 0 0 0 0 1 0 0 0 0 0 0 0 0 0 0 1x1
** *12 0 0 0 0 1 0 0 0 0 0 0 0 0 0 0 0 1x1
** *13 0 0 0 1 0 0 0 0 0 0 0 0 0 0 0 0 1x1
** *14 0 0 1 0 0 0 0 0 0 0 0 0 0 0 0 0 1x1
** *15 0 1 0 0 0 0 0 0 0 0 0 0 0 0 0 0 1x1
** *16 1 0 0 0 0 0 0 0 0 0 0 0 0 0 0 0 1x1

** *RESISTOR_TYPES
** *1 SHORTING_ELEMENT
** *2 PRES_NG
** *3 PRES_PG
** *4 PRES_NF
** *5 PRES_PF
** *6 TCN_NDIFF
** *7 TCN_PDIFF
** *8 TCN_NFIELD
** *9 TCN_PFIELD
** *10 QUALITY_EXTRACTED
** *11 GCNLAND
** *12 TCNLAND
** *13 DUMMY
** *14 RSD
** *15 BRIDGE

** *RESISTOR_CURRENT_DIRECTION
** *0 HORIZONTAL
** *1 VERTICAL
** *2 45 DEGREE

** QRC_TECH_DIR /vols/wfo_devel/projects/reference_SKY130/tech/sky130_release_0.0.4/quantus/extraction/typical 
** HIERARCHICAL_SPLIT_PINS_DELIMITER '%'
** caps2d version: 10
*
.SUBCKT  OR3X1_HS A B C Y
*
*Net Section
*
*|GROUND_NET VSS!
*
*LAYER_MAP
*0 none
*1 metal1
*2 li
*3 poly
*4 diff
*5 licon_diff
*6 mcon
*7 licon
*8 FOX

*|NET A 7.55705e-16
*|P (A X 0 1.3950 1.8600) // $llx=1.3950 $lly=1.8600 $urx=1.3950 $ury=1.8600 $lvl=1
*|I (Mmp0:g Mmp0 g X 0 1.3350 3.3550) // $llx=1.3350 $lly=3.3550 $urx=1.3350 $ury=3.3550 $lvl=3
*|I (Mmn0:g Mmn0 g X 0 1.3350 0.6075) // $llx=1.3350 $lly=0.6075 $urx=1.3350 $ury=0.6075 $lvl=3
*|S (A:8 1.3350 3.8950) // $llx=1.3350 $lly=3.8950 $urx=1.3350 $ury=3.8950 $lvl=3
*|S (A:9 1.3350 1.9500) // $llx=1.3350 $lly=1.9500 $urx=1.3350 $ury=1.9500 $lvl=3
*|S (A:10 1.3350 1.7850) // $llx=1.3350 $lly=1.7850 $urx=1.3350 $ury=1.7850 $lvl=3
*|S (A:11 1.3350 0.2450) // $llx=1.3350 $lly=0.2450 $urx=1.3350 $ury=0.2450 $lvl=3
*|S (A:12 1.3800 1.9500) // $llx=1.3800 $lly=1.9500 $urx=1.3800 $ury=1.9500 $lvl=2
*|S (A:13 1.3350 1.9500) // $llx=1.3350 $lly=1.9500 $urx=1.3350 $ury=1.9500 $lvl=2
*|S (A:14 1.3800 2.5050) // $llx=1.3800 $lly=2.5050 $urx=1.3800 $ury=2.5050 $lvl=1
*|S (A:15 1.3800 1.9500) // $llx=1.3800 $lly=1.9500 $urx=1.3800 $ury=1.9500 $lvl=1
*|S (A:16 1.3800 1.2650) // $llx=1.3800 $lly=1.2650 $urx=1.3800 $ury=1.2650 $lvl=1
CA1 Mmn0:g VSS! 1.16155e-18 $lvl=3
CA2 A:8 VSS! 2.88527e-18 $lvl=3
CA3 A:14 VSS! 3.96701e-18 $lvl=1
CA4 A:16 VSS! 4.48078e-18 $lvl=1
CA5 A:13 VSS! 4.57921e-18 $lvl=2
CA6 A:12 VSS! 4.47837e-18 $lvl=2
CA7 A:9 VSS! 1.78825e-17 $lvl=3
CA8 A VSS! 3.52846e-18 $lvl=1
CA9 A:8 n1:4 1.3865e-18 $lvl1=3 $lvl2=2
CA10 A:14 n1:4 7.14706e-19 $lvl1=1 $lvl2=2
CA11 A:8 n1:3 6.91985e-17 $lvl1=3 $lvl2=2
CA12 A:8 n1 1.71302e-18 $lvl1=3 $lvl2=2
CA13 A:9 n0:10 3.39233e-18 $lvl1=3 $lvl2=3
CA14 A:16 n0:29 3.22619e-18 $lvl1=1 $lvl2=2
CA15 A n0:36 3.17434e-18 $lvl1=1 $lvl2=1
CA16 A:16 n0:31 2.77478e-18 $lvl1=1 $lvl2=2
CA17 A:13 n0:37 2.34332e-18 $lvl1=2 $lvl2=1
CA18 A:9 n0:8 2.22881e-18 $lvl1=3 $lvl2=3
CA19 A:12 n0:37 2.17408e-18 $lvl1=2 $lvl2=1
CA20 A:13 n0:10 2.02744e-18 $lvl1=2 $lvl2=3
CA21 A:13 n0:31 1.87939e-18 $lvl1=2 $lvl2=2
CA22 A:16 n0:36 1.40269e-18 $lvl1=1 $lvl2=1
CA23 A:9 n0:31 1.37684e-18 $lvl1=3 $lvl2=2
CA24 A:14 n0:34 1.33713e-18 $lvl1=1 $lvl2=1
CA25 A:12 n0:31 1.14839e-18 $lvl1=2 $lvl2=2
CA26 A:16 n0:41 1.14735e-18 $lvl1=1 $lvl2=1
CA27 A:12 n0:36 1.08222e-18 $lvl1=2 $lvl2=1
CA28 A:13 n0:29 1.04801e-18 $lvl1=2 $lvl2=2
CA29 A:13 n0:36 9.13712e-19 $lvl1=2 $lvl2=1
CA30 A:13 n0:28 9.04837e-19 $lvl1=2 $lvl2=2
CA31 A:16 n0:40 8.95505e-19 $lvl1=1 $lvl2=1
CA32 A:16 n0:26 7.51006e-19 $lvl1=1 $lvl2=2
CA33 A:16 n0:10 7.12524e-19 $lvl1=1 $lvl2=3
CA34 A:13 n0:8 6.75209e-19 $lvl1=2 $lvl2=3
CA35 A:12 n0:29 6.39804e-19 $lvl1=2 $lvl2=2
CA36 A:9 n0:37 5.82971e-19 $lvl1=3 $lvl2=1
CA37 A:14 n0:32 5.78519e-19 $lvl1=1 $lvl2=1
CA38 Mmn0:g n0:27 5.6674e-19 $lvl1=3 $lvl2=2
CA39 A:12 n0:10 5.45763e-19 $lvl1=2 $lvl2=3
CA40 A:16 n0:43 5.40056e-19 $lvl1=1 $lvl2=1
CA41 A:12 n0:35 5.3245e-19 $lvl1=2 $lvl2=1
CA42 A:9 n0 4.73264e-19 $lvl1=3 $lvl2=3
CA43 A:13 n0:35 4.4068e-19 $lvl1=2 $lvl2=1
CA44 A n0:35 4.14042e-19 $lvl1=1 $lvl2=1
CA45 A:9 n0:28 3.91227e-19 $lvl1=3 $lvl2=2
CA46 A:9 n0:35 3.90971e-19 $lvl1=3 $lvl2=1
CA47 A:9 n0:29 3.8366e-19 $lvl1=3 $lvl2=2
CA48 A:16 n0:28 3.62194e-19 $lvl1=1 $lvl2=2
CA49 A:16 n0:35 3.45948e-19 $lvl1=1 $lvl2=1
CA50 Mmn0:g n0:10 3.17086e-19 $lvl1=3 $lvl2=3
CA51 A:12 n0:28 2.70683e-19 $lvl1=2 $lvl2=2
CA52 A:9 n0:36 2.49482e-19 $lvl1=3 $lvl2=1
CA53 A:8 n0:35 2.27639e-19 $lvl1=3 $lvl2=1
CA54 A:8 n0:34 2.07412e-19 $lvl1=3 $lvl2=1
CA55 A n0:38 2.04846e-19 $lvl1=1 $lvl2=1
CA56 A:16 n0:32 2.02983e-19 $lvl1=1 $lvl2=1
CA57 A:16 n0:34 1.98192e-19 $lvl1=1 $lvl2=1
CA58 A n0:29 1.97534e-19 $lvl1=1 $lvl2=2
CA59 A:14 n0:43 1.86048e-19 $lvl1=1 $lvl2=1
CA60 A n0:39 1.76795e-19 $lvl1=1 $lvl2=1
CA61 A:14 n0:39 1.71529e-19 $lvl1=1 $lvl2=1
CA62 A:9 n0:26 1.54546e-19 $lvl1=3 $lvl2=2
CA63 A:13 n0:39 1.53465e-19 $lvl1=2 $lvl2=1
CA64 A:13 n0:26 1.41763e-19 $lvl1=2 $lvl2=2
CA65 A:9 n0:39 1.39267e-19 $lvl1=3 $lvl2=1
CA66 A:9 n0:18 1.34223e-19 $lvl1=3 $lvl2=2
CA67 A:12 n0:39 1.31084e-19 $lvl1=2 $lvl2=1
CA68 A:16 n0:39 3.66078e-17 $lvl1=1 $lvl2=1
CA69 Mmn0:g n0:26 6.62972e-17 $lvl1=3 $lvl2=2
CA70 A:16 n0:37 3.28295e-17 $lvl1=1 $lvl2=1
CA71 A:14 n0:36 3.59202e-17 $lvl1=1 $lvl2=1
CA72 A:16 n0:38 3.93029e-18 $lvl1=1 $lvl2=1
CA73 A:14 n0:37 6.8144e-18 $lvl1=1 $lvl2=1
CA74 A:14 n0:35 3.87909e-17 $lvl1=1 $lvl2=1
CA75 A n0:37 1.14089e-17 $lvl1=1 $lvl2=1
CA76 A:9 VSS!:1 1.64673e-18 $lvl1=3 $lvl2=2
CA77 A:16 VSS!:15 1.12868e-18 $lvl1=1 $lvl2=1
CA78 A:13 VSS!:1 6.6006e-19 $lvl1=2 $lvl2=2
CA79 A:16 VSS!:1 3.98928e-18 $lvl1=1 $lvl2=2
CA80 Mmn0:g VSS!:8 9.11087e-18 $lvl1=3 $lvl2=2
CA81 Mmn0:g VSS!:1 4.02658e-17 $lvl1=3 $lvl2=2
CA82 A:9 Mmp3:s 2.24813e-18 $lvl1=3 $lvl2=4
CA83 A:13 VDD! 1.70497e-18 $lvl1=2 $lvl2=1
CA84 A VDD! 1.42543e-18 $lvl1=1 $lvl2=1
CA85 A:14 VDD!:10 7.93235e-19 $lvl1=1 $lvl2=1
CA86 A:9 VDD!:1 1.04121e-17 $lvl1=3 $lvl2=2
CA87 A:8 VDD!:1 7.17839e-17 $lvl1=3 $lvl2=2
CA88 A:8 VDD!:5 1.15421e-17 $lvl1=3 $lvl2=2
CA89 A:14 VDD! 4.21601e-18 $lvl1=1 $lvl2=1
CA90 A:16 VDD! 4.93391e-18 $lvl1=1 $lvl2=1
CA91 A:12 VDD!:1 4.76257e-18 $lvl1=2 $lvl2=2
CA92 A:14 VDD!:1 9.6272e-18 $lvl1=1 $lvl2=2
CA93 A:9 VDD! 6.9403e-18 $lvl1=3 $lvl2=1
CA94 A:13 VDD!:1 8.55272e-18 $lvl1=2 $lvl2=2
CA95 A:14 Y 1.49471e-18 $lvl1=1 $lvl2=1
CA96 A:16 Y 1.47786e-18 $lvl1=1 $lvl2=1
CA97 A:14 Y:11 1.30014e-18 $lvl1=1 $lvl2=1
CA98 A:16 Y:14 1.21103e-18 $lvl1=1 $lvl2=1
CA99 A:13 Y:5 1.17245e-18 $lvl1=2 $lvl2=2
CA100 A:13 Y:1 8.52844e-19 $lvl1=2 $lvl2=2
CA101 A:9 Y:1 8.30564e-19 $lvl1=3 $lvl2=2
CA102 A Y 7.03268e-19 $lvl1=1 $lvl2=1
CA103 A:13 Y 6.71832e-19 $lvl1=2 $lvl2=1
CA104 A:9 Y:5 6.14656e-19 $lvl1=3 $lvl2=2
CA105 A:14 Y:1 5.48106e-19 $lvl1=1 $lvl2=2
CA106 A:16 Y:11 4.55054e-19 $lvl1=1 $lvl2=1
CA107 A:14 Y:5 4.49239e-19 $lvl1=1 $lvl2=2
CA108 A:9 Y 3.6782e-19 $lvl1=3 $lvl2=1
CA109 A:9 C:14 3.42392e-18 $lvl1=3 $lvl2=2
CA110 A:14 C 2.9014e-18 $lvl1=1 $lvl2=1
CA111 A:14 C:14 2.54764e-18 $lvl1=1 $lvl2=2
CA112 A:14 C:15 2.19562e-18 $lvl1=1 $lvl2=1
CA113 A:9 C:9 1.86862e-18 $lvl1=3 $lvl2=3
CA114 A:16 C 1.84982e-18 $lvl1=1 $lvl2=1
CA115 A:12 C:14 1.32746e-18 $lvl1=2 $lvl2=2
CA116 A:13 C 1.10332e-18 $lvl1=2 $lvl2=1
CA117 A:13 C:9 8.76346e-19 $lvl1=2 $lvl2=3
CA118 A:9 C 7.86665e-19 $lvl1=3 $lvl2=1
CA119 A C 7.48254e-19 $lvl1=1 $lvl2=1
CA120 A:13 C:14 4.12982e-18 $lvl1=2 $lvl2=2
CA121 A:16 B:13 2.35106e-18 $lvl1=1 $lvl2=2
CA122 Mmn0:g B:9 2.26753e-18 $lvl1=3 $lvl2=3
CA123 A:9 B:9 2.21861e-18 $lvl1=3 $lvl2=3
CA124 A:16 B:12 1.89979e-18 $lvl1=1 $lvl2=2
CA125 A:9 B:16 1.79376e-18 $lvl1=3 $lvl2=1
CA126 A:13 B:9 1.18859e-18 $lvl1=2 $lvl2=3
CA127 A:16 B:9 8.34659e-19 $lvl1=1 $lvl2=3
CA128 A:9 B:12 8.05058e-19 $lvl1=3 $lvl2=2
CA129 A:13 B:12 7.05236e-19 $lvl1=2 $lvl2=2
CA130 A:13 B:13 5.76219e-19 $lvl1=2 $lvl2=2
CA131 A:9 B:13 4.49432e-19 $lvl1=3 $lvl2=2
CA132 A:12 B:12 3.82452e-19 $lvl1=2 $lvl2=2
CA133 Mmn0:g B:12 3.57143e-19 $lvl1=3 $lvl2=2
CA134 A:14 B:18 3.45687e-19 $lvl1=1 $lvl2=1
CA135 A:13 B:16 5.0764e-18 $lvl1=2 $lvl2=1
CA136 A:16 B:16 4.22278e-17 $lvl1=1 $lvl2=1
CA137 A:12 B:16 4.30492e-18 $lvl1=2 $lvl2=1
CA138 A:16 B:18 2.0333e-17 $lvl1=1 $lvl2=1
CA139 A B:16 1.87127e-17 $lvl1=1 $lvl2=1
CA140 A:14 B:16 2.13787e-17 $lvl1=1 $lvl2=1
ReA1 A:14 A:15 0.266827 $metal1  $L=0.555 $W=0.260000 $SI_W=0.26 $TYPE=10 $DIR=1 $LLX=1.250000 $LLY=1.950000 $URX=1.510000 $URY=2.505000 $lvl=1
ReA2 A:15 A 0.043269 $metal1  $L=0.09 $W=0.260000 $SI_W=0.26 $TYPE=10 $DIR=1 $LLX=1.250000 $LLY=1.860000 $URX=1.510000 $URY=1.950000 $lvl=1
ReA3 A A:16 0.286058 $metal1  $L=0.595 $W=0.260000 $SI_W=0.26 $TYPE=10 $DIR=1 $LLX=1.250000 $LLY=1.265000 $URX=1.510000 $URY=1.860000 $lvl=1
RfA4 A:12 A:13 3.388236 $li  $L=0.045 $W=1000000 $SI_W=1000000 $TYPE=1,10 $DIR=0 $LLX=1.335000 $LLY=1.865000 $URX=1.380000 $URY=2.035000 $lvl=2
RgA5 A:8 Mmp0:g 173.519989 $poly  $L=0.54 $W=0.150000 $SI_W=0.15 $TYPE=10 $DIR=1 $LLX=1.260000 $LLY=3.355000 $URX=1.410000 $URY=3.895000 $lvl=3
RgA6 Mmp0:g A:9 432.632416 $poly  $L=1.405 $W=0.150000 $SI_W=0.15 $TYPE=10 $DIR=1 $LLX=1.260000 $LLY=1.950000 $URX=1.410000 $URY=3.355000 $lvl=3
RgA7 A:9 A:10 34.134449 $poly  $L=0.1645 $W=0.270000 $SI_W=0.27 $TYPE=10 $DIR=1 $LLX=1.200000 $LLY=1.785500 $URX=1.470000 $URY=1.950000 $lvl=3
RgA8 A:10 Mmn0:g 378.414642 $poly  $L=1.1775 $W=0.150000 $SI_W=0.15 $TYPE=10 $DIR=1 $LLX=1.260000 $LLY=0.607500 $URX=1.410000 $URY=1.785000 $lvl=3
RgA9 Mmn0:g A:11 116.483322 $poly  $L=0.3625 $W=0.150000 $SI_W=0.15 $TYPE=10 $DIR=1 $LLX=1.260000 $LLY=0.245000 $URX=1.410000 $URY=0.607500 $lvl=3
RjA10 A:12 A:15 152.000000 $mcon  $L=0.17 $W=0.17 $A=0.0289 $VC=0 $SAVL=0 $SAVC=0 $SI_A=0.0289 $COVER_DIR=0 $LLX=0.000000 $LLY=0.000000 $URX=0.170000 $URY=0.170000 $lvl=6
RiA11 A:9 A:13 15.000000 $licon  $L=0.17 $W=0.17 $A=0.0289 $VC=0 $SAVL=0 $SAVC=0 $SI_A=0.0289 $COVER_DIR=0 $LLX=0.000000 $LLY=0.000000 $URX=0.170000 $URY=0.170000 $lvl=7
*
*|NET VSS! 1.56323e-15
*|P (VSS! X 0 1.5250 0.0050) // $llx=1.5250 $lly=0.0050 $urx=1.5250 $ury=0.0050 $lvl=1
*|I (Mmn1:s Mmn1 s X 0 0.8295 0.6075) // $llx=0.8295 $lly=0.6075 $urx=0.8295 $ury=0.6075 $lvl=4
*|I (Mmn1:b Mmn1 b X 0 0.9050 0.6075) // $llx=0.9050 $lly=0.6075 $urx=0.9050 $ury=0.6075 $lvl=8
*|I (Mmn3:s Mmn3 s X 0 1.7495 0.7750) // $llx=1.7495 $lly=0.7750 $urx=1.7495 $ury=0.7750 $lvl=4
*|I (Mmn3:b Mmn3 b X 0 1.8250 0.7750) // $llx=1.8250 $lly=0.7750 $urx=1.8250 $ury=0.7750 $lvl=8
*|I (Mmn2:s Mmn2 s X 0 0.5505 0.6075) // $llx=0.5505 $lly=0.6075 $urx=0.5505 $ury=0.6075 $lvl=4
*|I (Mmn2:b Mmn2 b X 0 0.4750 0.6075) // $llx=0.4750 $lly=0.6075 $urx=0.4750 $ury=0.6075 $lvl=8
*|I (Mmn0:s Mmn0 s X 0 1.4105 0.6075) // $llx=1.4105 $lly=0.6075 $urx=1.4105 $ury=0.6075 $lvl=4
*|I (Mmn0:b Mmn0 b X 0 1.3350 0.6075) // $llx=1.3350 $lly=0.6075 $urx=1.3350 $ury=0.6075 $lvl=8
*|S (VSS!:1 1.6100 1.1550) // $llx=1.6100 $lly=1.1550 $urx=1.6100 $ury=1.1550 $lvl=2
*|S (VSS!:3 1.6100 0.7750) // $llx=1.6100 $lly=0.7750 $urx=1.6100 $ury=0.7750 $lvl=2
*|S (VSS!:4 1.6100 0.0000) // $llx=1.6100 $lly=0.0000 $urx=1.6100 $ury=0.0000 $lvl=2
*|S (VSS!:5 1.3800 0.0000) // $llx=1.3800 $lly=0.0000 $urx=1.3800 $ury=0.0000 $lvl=2
*|S (VSS!:6 1.3800 0.0000) // $llx=1.3800 $lly=0.0000 $urx=1.3800 $ury=0.0000 $lvl=4
*|S (VSS!:8 0.6900 0.0000) // $llx=0.6900 $lly=0.0000 $urx=0.6900 $ury=0.0000 $lvl=2
*|S (VSS!:9 0.0000 0.0000) // $llx=0.0000 $lly=0.0000 $urx=0.0000 $ury=0.0000 $lvl=2
*|S (VSS!:10 2.7595 0.0000) // $llx=2.7595 $lly=0.0000 $urx=2.7595 $ury=0.0000 $lvl=2
*|S (VSS!:12 0.6900 0.6050) // $llx=0.6900 $lly=0.6050 $urx=0.6900 $ury=0.6050 $lvl=2
*|S (VSS!:13 0.6900 0.8200) // $llx=0.6900 $lly=0.8200 $urx=0.6900 $ury=0.8200 $lvl=2
*|S (VSS!:14 2.7600 0.0000) // $llx=2.7600 $lly=0.0000 $urx=2.7600 $ury=0.0000 $lvl=1
*|S (VSS!:15 1.3800 0.0000) // $llx=1.3800 $lly=0.0000 $urx=1.3800 $ury=0.0000 $lvl=1
*|S (VSS!:16 0.0000 0.0000) // $llx=0.0000 $lly=0.0000 $urx=0.0000 $ury=0.0000 $lvl=1
ReF66 VSS!:14 VSS! 0.385937 $metal1  $L=1.235 $W=0.400000 $SI_W=0.4 $TYPE=10 $DIR=0 $LLX=1.525000 $LLY=-0.199500 $URX=2.760000 $URY=0.200000 $lvl=1
ReF67 VSS! VSS!:15 0.045313 $metal1  $L=0.145 $W=0.400000 $SI_W=0.4 $TYPE=10 $DIR=0 $LLX=1.380000 $LLY=-0.199500 $URX=1.525000 $URY=0.200000 $lvl=1
ReF68 VSS!:15 VSS!:16 0.431250 $metal1  $L=1.38 $W=0.400000 $SI_W=0.4 $TYPE=10 $DIR=0 $LLX=0.000000 $LLY=-0.199500 $URX=1.380000 $URY=0.200000 $lvl=1
RfF69 VSS!:1 VSS!:3 28.611765 $li  $L=0.38 $W=0.170000 $SI_W=0.17 $TYPE=10 $DIR=1 $LLX=1.525000 $LLY=0.775000 $URX=1.695000 $URY=1.155000 $lvl=2
RfF70 VSS!:3 VSS!:4 55.328377 $li  $L=0.77475 $W=0.170000 $SI_W=0.17 $TYPE=10 $DIR=1 $LLX=1.525000 $LLY=0.000000 $URX=1.695000 $URY=0.775000 $lvl=2
RfF71 VSS!:4 VSS!:5 11.788800 $li  $L=0.23025 $W=0.250000 $SI_W=0.25 $TYPE=10 $DIR=0 $LLX=1.380000 $LLY=-0.124500 $URX=1.610000 $URY=0.125000 $lvl=2
RfF72 VSS!:5 VSS!:8 35.315201 $li  $L=0.68975 $W=0.250000 $SI_W=0.25 $TYPE=10 $DIR=0 $LLX=0.690000 $LLY=-0.124500 $URX=1.380000 $URY=0.125000 $lvl=2
RfF73 VSS!:8 VSS!:9 35.340801 $li  $L=0.69025 $W=0.250000 $SI_W=0.25 $TYPE=10 $DIR=0 $LLX=0.000000 $LLY=-0.124500 $URX=0.690000 $URY=0.125000 $lvl=2
RfF74 VSS!:4 VSS!:10 58.841599 $li  $L=1.14925 $W=0.250000 $SI_W=0.25 $TYPE=10 $DIR=0 $LLX=1.610000 $LLY=-0.124500 $URX=2.759000 $URY=0.125000 $lvl=2
RfF75 VSS!:8 VSS!:12 42.528378 $li  $L=0.60475 $W=0.170000 $SI_W=0.17 $TYPE=10 $DIR=1 $LLX=0.605000 $LLY=0.000000 $URX=0.775000 $URY=0.605000 $lvl=2
RfF76 VSS!:12 VSS!:13 16.188236 $li  $L=0.215 $W=0.170000 $SI_W=0.17 $TYPE=10 $DIR=1 $LLX=0.605000 $LLY=0.605000 $URX=0.775000 $URY=0.820000 $lvl=2
RhF77 Mmn3:s VSS!:3 7.500000 $licon_diff  $A=0.0578 $VC=0 $SAVL=0 $SAVC=0 $SI_A=0.0578 $COVER_DIR=0 $LLX=0.000000 $LLY=0.000000 $URX=-0.057800 $URY=-2.000000 $lvl=5
RhF78 Mmn1:s VSS!:12 15.000000 $licon_diff  $L=0.17 $W=0.17 $A=0.0289 $VC=0 $SAVL=0 $SAVC=0 $SI_A=0.0289 $COVER_DIR=0 $LLX=0.000000 $LLY=0.000000 $URX=0.170000 $URY=0.170000 $lvl=5
Rh_3_F79 VSS!:6 VSS!:5 3.000000 $licon_diff  $A=0.1445 $VC=0 $SAVL=0 $SAVC=0 $SI_A=0.1445 $COVER_DIR=0 $LLX=0.000000 $LLY=0.000000 $URX=-0.144500 $URY=-5.000000 $lvl=5
RjF80 VSS!:5 VSS!:15 30.400000 $mcon  $A=0.1445 $VC=0 $SAVL=0 $SAVC=0 $SI_A=0.1445 $COVER_DIR=0 $LLX=0.000000 $LLY=0.000000 $URX=-0.144500 $URY=-5.000000 $lvl=6
RmwF81 Mmn1:b VSS! 0.001000 $FOX $W=1000000 $SI_W=1000000 $TYPE=1 $DIR=0
RmwF82 Mmn3:b VSS! 0.001000 $FOX $W=1000000 $SI_W=1000000 $TYPE=1 $DIR=0
RmwF83 Mmn2:s Mmn1:s 0.001000 $diff $W=1000000 $SI_W=1000000 $TYPE=1 $DIR=0
RmwF84 Mmn2:b VSS! 0.001000 $FOX $W=1000000 $SI_W=1000000 $TYPE=1 $DIR=0
RmwF85 Mmn0:s Mmn3:s 0.001000 $diff $W=1000000 $SI_W=1000000 $TYPE=1 $DIR=0
RmwF86 Mmn0:b VSS! 0.001000 $FOX $W=1000000 $SI_W=1000000 $TYPE=1 $DIR=0
*
*|NET C 7.42537e-16
*|P (C X 0 0.4750 2.0650) // $llx=0.4750 $lly=2.0650 $urx=0.4750 $ury=2.0650 $lvl=1
*|I (Mmp2:g Mmp2 g X 0 0.4750 3.3550) // $llx=0.4750 $lly=3.3550 $urx=0.4750 $ury=3.3550 $lvl=3
*|I (Mmn2:g Mmn2 g X 0 0.4750 0.6075) // $llx=0.4750 $lly=0.6075 $urx=0.4750 $ury=0.6075 $lvl=3
*|S (C:8 0.4750 3.8950) // $llx=0.4750 $lly=3.8950 $urx=0.4750 $ury=3.8950 $lvl=3
*|S (C:9 0.4750 2.3050) // $llx=0.4750 $lly=2.3050 $urx=0.4750 $ury=2.3050 $lvl=3
*|S (C:10 0.4750 2.1400) // $llx=0.4750 $lly=2.1400 $urx=0.4750 $ury=2.1400 $lvl=3
*|S (C:11 0.4750 0.2450) // $llx=0.4750 $lly=0.2450 $urx=0.4750 $ury=0.2450 $lvl=3
*|S (C:12 0.8550 2.3050) // $llx=0.8550 $lly=2.3050 $urx=0.8550 $ury=2.3050 $lvl=2
*|S (C:13 0.4750 2.3050) // $llx=0.4750 $lly=2.3050 $urx=0.4750 $ury=2.3050 $lvl=2
*|S (C:14 0.4600 2.3050) // $llx=0.4600 $lly=2.3050 $urx=0.4600 $ury=2.3050 $lvl=2
*|S (C:15 0.4600 2.7100) // $llx=0.4600 $lly=2.7100 $urx=0.4600 $ury=2.7100 $lvl=1
*|S (C:16 0.4600 2.3050) // $llx=0.4600 $lly=2.3050 $urx=0.4600 $ury=2.3050 $lvl=1
*|S (C:17 0.4600 1.4700) // $llx=0.4600 $lly=1.4700 $urx=0.4600 $ury=1.4700 $lvl=1
CC1 Mmn2:g VSS! 1.25031e-18 $lvl=3
CC2 C:8 VSS! 2.33875e-18 $lvl=3
CC3 C:15 VSS! 6.60225e-18 $lvl=1
CC4 C:14 VSS! 1.16891e-17 $lvl=2
CC5 C:9 VSS! 1.18848e-17 $lvl=3
CC6 C VSS! 1.14574e-17 $lvl=1
CC7 C:8 n2 1.40447e-18 $lvl1=3 $lvl2=2
CC8 C:8 n2:4 1.36852e-18 $lvl1=3 $lvl2=2
CC9 C:14 n2:3 1.0832e-18 $lvl1=2 $lvl2=2
CC10 C:9 n2:4 9.72095e-19 $lvl1=3 $lvl2=2
CC11 C:15 n2:3 8.55807e-19 $lvl1=1 $lvl2=2
CC12 C:9 n2:3 6.53073e-19 $lvl1=3 $lvl2=2
CC13 C:14 n2:4 2.99242e-18 $lvl1=2 $lvl2=2
CC14 C:8 n2:3 6.92668e-17 $lvl1=3 $lvl2=2
CC15 C:15 n2:4 2.3156e-18 $lvl1=1 $lvl2=2
CC16 C:14 n0:35 3.55676e-18 $lvl1=2 $lvl2=1
CC17 C:14 n0:17 3.30368e-18 $lvl1=2 $lvl2=2
CC18 C n0:18 3.1831e-18 $lvl1=1 $lvl2=2
CC19 C:15 n0:17 2.76075e-18 $lvl1=1 $lvl2=2
CC20 C:14 n0:13 2.03918e-18 $lvl1=2 $lvl2=2
CC21 C:14 n0:32 2.02214e-18 $lvl1=2 $lvl2=1
CC22 C:9 n0:13 1.65937e-18 $lvl1=3 $lvl2=2
CC23 C n0:34 1.3862e-18 $lvl1=1 $lvl2=1
CC24 C n0:41 1.35377e-18 $lvl1=1 $lvl2=1
CC25 C:15 n0:16 1.31633e-18 $lvl1=1 $lvl2=2
CC26 C:15 n0:13 1.2047e-18 $lvl1=1 $lvl2=2
CC27 C n0:21 1.19825e-18 $lvl1=1 $lvl2=2
CC28 C n0:13 1.04705e-18 $lvl1=1 $lvl2=2
CC29 C:8 n0:17 1.00742e-18 $lvl1=3 $lvl2=2
CC30 C:9 n0:17 9.55873e-19 $lvl1=3 $lvl2=2
CC31 C:14 n0:34 8.97661e-19 $lvl1=2 $lvl2=1
CC32 C n0:17 7.81396e-19 $lvl1=1 $lvl2=2
CC33 C n0:36 7.30722e-19 $lvl1=1 $lvl2=1
CC34 C:14 n0:16 6.84241e-19 $lvl1=2 $lvl2=2
CC35 C:9 Mmp2:d 6.48297e-19 $lvl1=3 $lvl2=4
CC36 C:14 n0:18 6.11495e-19 $lvl1=2 $lvl2=2
CC37 Mmn2:g n0:22 5.9316e-19 $lvl1=3 $lvl2=2
CC38 C n0:37 5.8724e-19 $lvl1=1 $lvl2=1
CC39 C n0:39 5.40919e-19 $lvl1=1 $lvl2=1
CC40 C:15 n0:36 4.8267e-19 $lvl1=1 $lvl2=1
CC41 C:14 n0:43 4.4184e-19 $lvl1=2 $lvl2=1
CC42 C:15 n0:43 4.15284e-19 $lvl1=1 $lvl2=1
CC43 C:9 n0:32 4.13475e-19 $lvl1=3 $lvl2=1
CC44 Mmn2:g n0:26 4.1303e-19 $lvl1=3 $lvl2=2
CC45 C n0:16 4.04546e-19 $lvl1=1 $lvl2=2
CC46 C:14 Mmp2:d 3.61366e-19 $lvl1=2 $lvl2=4
CC47 Mmn2:g n0:21 3.34123e-19 $lvl1=3 $lvl2=2
CC48 C:9 n0:35 3.29425e-19 $lvl1=3 $lvl2=1
CC49 C Mmn2:d 3.11885e-19 $lvl1=1 $lvl2=4
CC50 C n0:40 2.95331e-19 $lvl1=1 $lvl2=1
CC51 C:9 n0:18 2.71975e-19 $lvl1=3 $lvl2=2
CC52 C:8 n0:32 2.40464e-19 $lvl1=3 $lvl2=1
CC53 C:9 n0:16 2.40202e-19 $lvl1=3 $lvl2=2
CC54 C n0:38 2.34798e-19 $lvl1=1 $lvl2=1
CC55 C:14 n0:36 2.10417e-19 $lvl1=2 $lvl2=1
CC56 C:8 n0:35 2.09083e-19 $lvl1=3 $lvl2=1
CC57 C:15 n0:35 1.10284e-17 $lvl1=1 $lvl2=1
CC58 C:15 n0:34 6.27409e-18 $lvl1=1 $lvl2=1
CC59 C:15 n0:32 2.01791e-17 $lvl1=1 $lvl2=1
CC60 C n0:32 4.72245e-18 $lvl1=1 $lvl2=1
CC61 C n0:43 7.91304e-18 $lvl1=1 $lvl2=1
CC62 C:8 n0:13 1.34028e-16 $lvl1=3 $lvl2=2
CC63 C n0:35 4.25697e-18 $lvl1=1 $lvl2=1
CC64 Mmn2:g n0:18 6.87346e-17 $lvl1=3 $lvl2=2
CC65 C VSS!:15 1.89651e-18 $lvl1=1 $lvl2=1
CC66 C VSS!:16 1.67034e-18 $lvl1=1 $lvl2=1
CC67 C VSS!:13 9.88661e-19 $lvl1=1 $lvl2=2
CC68 Mmn2:g VSS!:9 7.2352e-19 $lvl1=3 $lvl2=2
CC69 Mmn2:g VSS!:8 7.4913e-18 $lvl1=3 $lvl2=2
CC70 Mmn2:g VSS!:13 6.60532e-17 $lvl1=3 $lvl2=2
CC71 C VDD!:10 1.69172e-18 $lvl1=1 $lvl2=1
CC72 C:15 VDD!:10 1.47243e-18 $lvl1=1 $lvl2=1
CC73 C:9 VDD!:1 1.23319e-18 $lvl1=3 $lvl2=2
CC74 C VDD!:11 1.00197e-18 $lvl1=1 $lvl2=1
CC75 C:15 VDD!:11 8.15546e-19 $lvl1=1 $lvl2=1
CC76 C VDD!:5 4.88396e-19 $lvl1=1 $lvl2=2
CC77 C:8 VDD!:1 4.82174e-19 $lvl1=3 $lvl2=2
CC78 C:14 VDD! 1.28242e-17 $lvl1=2 $lvl2=1
CC79 C:15 VDD! 9.89203e-18 $lvl1=1 $lvl2=1
CC80 C:8 VDD!:5 9.87488e-18 $lvl1=3 $lvl2=2
CC81 C VDD! 3.21914e-17 $lvl1=1 $lvl2=1
CC82 C:14 VDD!:1 3.89753e-18 $lvl1=2 $lvl2=2
CC83 C:9 VDD! 1.97992e-17 $lvl1=3 $lvl2=1
ReC25 C:15 C:16 0.194712 $metal1  $L=0.405 $W=0.260000 $SI_W=0.26 $TYPE=10 $DIR=1 $LLX=0.330000 $LLY=2.305000 $URX=0.590000 $URY=2.710000 $lvl=1
ReC26 C:16 C 0.115385 $metal1  $L=0.24 $W=0.260000 $SI_W=0.26 $TYPE=10 $DIR=1 $LLX=0.330000 $LLY=2.065000 $URX=0.590000 $URY=2.305000 $lvl=1
ReC27 C C:17 0.286058 $metal1  $L=0.595 $W=0.260000 $SI_W=0.26 $TYPE=10 $DIR=1 $LLX=0.345000 $LLY=1.470000 $URX=0.605000 $URY=2.065000 $lvl=1
RfC28 C:12 C:13 28.611765 $li  $L=0.38 $W=0.170000 $SI_W=0.17 $TYPE=10 $DIR=0 $LLX=0.475000 $LLY=2.220000 $URX=0.855000 $URY=2.390000 $lvl=2
RfC29 C:13 C:14 1.129412 $li  $L=0.015 $W=1000000 $SI_W=1000000 $TYPE=1,10 $DIR=0 $LLX=0.460000 $LLY=2.220000 $URX=0.475000 $URY=2.390000 $lvl=2
RgC30 C:8 Mmp2:g 173.519989 $poly  $L=0.54 $W=0.150000 $SI_W=0.15 $TYPE=10 $DIR=1 $LLX=0.400000 $LLY=3.355000 $URX=0.550000 $URY=3.895000 $lvl=3
RgC31 Mmp2:g C:9 318.559082 $poly  $L=1.05 $W=0.150000 $SI_W=0.15 $TYPE=10 $DIR=1 $LLX=0.400000 $LLY=2.305000 $URX=0.550000 $URY=3.355000 $lvl=3
RgC32 C:9 C:10 34.134449 $poly  $L=0.1645 $W=0.270000 $SI_W=0.27 $TYPE=10 $DIR=1 $LLX=0.340000 $LLY=2.140500 $URX=0.610000 $URY=2.304500 $lvl=3
RgC33 C:10 Mmn2:g 492.487976 $poly  $L=1.5325 $W=0.150000 $SI_W=0.15 $TYPE=10 $DIR=1 $LLX=0.400000 $LLY=0.607500 $URX=0.550000 $URY=2.140000 $lvl=3
RgC34 Mmn2:g C:11 116.483322 $poly  $L=0.3625 $W=0.150000 $SI_W=0.15 $TYPE=10 $DIR=1 $LLX=0.400000 $LLY=0.245000 $URX=0.550000 $URY=0.607500 $lvl=3
RjC35 C:14 C:16 152.000000 $mcon  $L=0.17 $W=0.17 $A=0.0289 $VC=0 $SAVL=0 $SAVC=0 $SI_A=0.0289 $COVER_DIR=0 $LLX=0.000000 $LLY=0.000000 $URX=0.170000 $URY=0.170000 $lvl=6
RiC36 C:9 C:13 15.000000 $licon  $L=0.17 $W=0.17 $A=0.0289 $VC=0 $SAVL=0 $SAVC=0 $SI_A=0.0289 $COVER_DIR=0 $LLX=0.000000 $LLY=0.000000 $URX=0.170000 $URY=0.170000 $lvl=7
*
*|NET Y 1.49168e-15
*|P (Y X 0 2.3150 1.9250) // $llx=2.3150 $lly=1.9250 $urx=2.3150 $ury=1.9250 $lvl=1
*|I (Mmp3:d Mmp3 d X 0 1.9005 3.0150) // $llx=1.9005 $lly=3.0150 $urx=1.9005 $ury=3.0150 $lvl=4
*|I (Mmn3:d Mmn3 d X 0 1.9005 0.7750) // $llx=1.9005 $lly=0.7750 $urx=1.9005 $ury=0.7750 $lvl=4
*|S (Y:1 2.0400 3.7450) // $llx=2.0400 $lly=3.7450 $urx=2.0400 $ury=3.7450 $lvl=2
*|S (Y:2 2.0400 3.1900) // $llx=2.0400 $lly=3.1900 $urx=2.0400 $ury=3.1900 $lvl=2
*|S (Y:4 2.0400 3.0150) // $llx=2.0400 $lly=3.0150 $urx=2.0400 $ury=3.0150 $lvl=2
*|S (Y:5 2.0400 2.2850) // $llx=2.0400 $lly=2.2850 $urx=2.0400 $ury=2.2850 $lvl=2
*|S (Y:6 2.0400 1.1550) // $llx=2.0400 $lly=1.1550 $urx=2.0400 $ury=1.1550 $lvl=2
*|S (Y:8 2.0400 0.7750) // $llx=2.0400 $lly=0.7750 $urx=2.0400 $ury=0.7750 $lvl=2
*|S (Y:9 2.0400 0.6100) // $llx=2.0400 $lly=0.6100 $urx=2.0400 $ury=0.6100 $lvl=2
*|S (Y:10 2.0400 0.3950) // $llx=2.0400 $lly=0.3950 $urx=2.0400 $ury=0.3950 $lvl=2
*|S (Y:11 2.0400 3.1900) // $llx=2.0400 $lly=3.1900 $urx=2.0400 $ury=3.1900 $lvl=1
*|S (Y:12 2.3000 3.1900) // $llx=2.3000 $lly=3.1900 $urx=2.3000 $ury=3.1900 $lvl=1
*|S (Y:13 2.3000 0.6100) // $llx=2.3000 $lly=0.6100 $urx=2.3000 $ury=0.6100 $lvl=1
*|S (Y:14 2.0400 0.6100) // $llx=2.0400 $lly=0.6100 $urx=2.0400 $ury=0.6100 $lvl=1
CD1 Mmn3:d VSS! 1.94218e-18 $lvl=4
CD2 Mmp3:d VSS! 1.96886e-18 $lvl=4
CD3 Y:14 VSS! 1.06664e-17 $lvl=1
CD4 Y:11 VSS! 9.03733e-18 $lvl=1
CD5 Y:6 VSS! 2.19055e-17 $lvl=2
CD6 Y:10 VSS! 2.01573e-18 $lvl=2
CD7 Y:1 VSS! 6.31151e-18 $lvl=2
CD8 Y:5 VSS! 3.17769e-18 $lvl=2
CD9 Y:9 VSS! 2.20966e-18 $lvl=2
CD10 Y:2 VSS! 1.775e-18 $lvl=2
CD11 Y VSS! 1.11326e-17 $lvl=1
CD12 Y:6 n0:38 6.52951e-18 $lvl1=2 $lvl2=1
CD13 Y:5 n0:36 4.92584e-18 $lvl1=2 $lvl2=1
CD14 Y:6 n0:29 4.9163e-18 $lvl1=2 $lvl2=2
CD15 Y n0:28 4.82107e-18 $lvl1=1 $lvl2=2
CD16 Y:11 n0:34 4.46508e-18 $lvl1=1 $lvl2=1
CD17 Y n0:29 4.13597e-18 $lvl1=1 $lvl2=2
CD18 Y:14 n0:39 4.07652e-18 $lvl1=1 $lvl2=1
CD19 Y:2 n0:36 3.6253e-18 $lvl1=2 $lvl2=1
CD20 Y:11 n0:35 3.6015e-18 $lvl1=1 $lvl2=1
CD21 Y:9 n0:38 2.75706e-18 $lvl1=2 $lvl2=1
CD22 Y:9 n0:40 2.67743e-18 $lvl1=2 $lvl2=1
CD23 Y n0:38 2.45667e-18 $lvl1=1 $lvl2=1
CD24 Y:14 n0:29 2.35042e-18 $lvl1=1 $lvl2=2
CD25 Y:14 n0:28 2.27185e-18 $lvl1=1 $lvl2=2
CD26 Y n0:10 2.20976e-18 $lvl1=1 $lvl2=3
CD27 Y:5 n0:37 2.06021e-18 $lvl1=2 $lvl2=1
CD28 Y:6 n0:31 1.44839e-18 $lvl1=2 $lvl2=2
CD29 Y:1 n0:10 1.34489e-18 $lvl1=2 $lvl2=3
CD30 Mmn3:d n0:10 1.32105e-18 $lvl1=4 $lvl2=3
CD31 Y:11 n0:37 1.288e-18 $lvl1=1 $lvl2=1
CD32 Y:5 n0:8 1.23633e-18 $lvl1=2 $lvl2=3
CD33 Y:6 n0:37 1.20973e-18 $lvl1=2 $lvl2=1
CD34 Y:14 n0:10 9.68444e-19 $lvl1=1 $lvl2=3
CD35 Y:1 n0:37 9.61115e-19 $lvl1=2 $lvl2=1
CD36 Y:6 n0:39 8.77866e-19 $lvl1=2 $lvl2=1
CD37 Y:9 n0:39 7.5907e-19 $lvl1=2 $lvl2=1
CD38 Y:14 n0:41 7.5451e-19 $lvl1=1 $lvl2=1
CD39 Y n0:35 7.33273e-19 $lvl1=1 $lvl2=1
CD40 Y:5 n0:10 6.81229e-19 $lvl1=2 $lvl2=3
CD41 Mmp3:d n0:10 6.63074e-19 $lvl1=4 $lvl2=3
CD42 Y:10 n0 6.08792e-19 $lvl1=2 $lvl2=3
CD43 Y:11 n0:32 5.99498e-19 $lvl1=1 $lvl2=1
CD44 Y:1 n0:28 5.94431e-19 $lvl1=2 $lvl2=2
CD45 Y n0:39 5.71262e-19 $lvl1=1 $lvl2=1
CD46 Y:5 n0:28 5.70266e-19 $lvl1=2 $lvl2=2
CD47 Y n0:8 5.54141e-19 $lvl1=1 $lvl2=3
CD48 Y:14 n0:36 5.41218e-19 $lvl1=1 $lvl2=1
CD49 Y:1 n0:35 5.19934e-19 $lvl1=2 $lvl2=1
CD50 Y:2 n0:34 5.02872e-19 $lvl1=2 $lvl2=1
CD51 Y:14 n0:43 4.72689e-19 $lvl1=1 $lvl2=1
CD52 Y:6 n0:40 4.4219e-19 $lvl1=2 $lvl2=1
CD53 Y n0:34 4.18803e-19 $lvl1=1 $lvl2=1
CD54 Y:1 n0:34 4.15199e-19 $lvl1=2 $lvl2=1
CD55 Y n0:32 3.66106e-19 $lvl1=1 $lvl2=1
CD56 Y:2 n0:35 3.52988e-19 $lvl1=2 $lvl2=1
CD57 Y n0:43 3.21404e-19 $lvl1=1 $lvl2=1
CD58 Y:11 n0:38 2.99762e-19 $lvl1=1 $lvl2=1
CD59 Y:11 n0:36 9.28524e-17 $lvl1=1 $lvl2=1
CD60 Y:14 n0:40 1.31247e-17 $lvl1=1 $lvl2=1
CD61 Y:14 n0:37 1.71913e-17 $lvl1=1 $lvl2=1
CD62 Y n0:37 9.69258e-17 $lvl1=1 $lvl2=1
CD63 Y:6 n0:10 1.05796e-17 $lvl1=2 $lvl2=3
CD64 Y:6 n0:28 1.1414e-17 $lvl1=2 $lvl2=2
CD65 Y n0:36 4.91685e-17 $lvl1=1 $lvl2=1
CD66 Y:1 n0:8 2.55678e-16 $lvl1=2 $lvl2=3
CD67 Y:1 n0:36 1.44145e-17 $lvl1=2 $lvl2=1
CD68 Y:14 n0:38 7.23706e-17 $lvl1=1 $lvl2=1
CD69 Y:6 n0 1.27443e-16 $lvl1=2 $lvl2=3
CD70 Y:10 VSS!:1 4.70254e-18 $lvl1=2 $lvl2=2
CD71 Y:14 VSS!:10 4.57465e-18 $lvl1=1 $lvl2=2
CD72 Y:6 VSS!:10 3.52103e-18 $lvl1=2 $lvl2=2
CD73 Y:9 VSS!:15 3.5075e-18 $lvl1=2 $lvl2=1
CD74 Mmn3:d VSS!:8 3.45197e-18 $lvl1=4 $lvl2=2
CD75 Y:9 VSS!:8 2.94164e-18 $lvl1=2 $lvl2=2
CD76 Y:6 VSS!:6 2.82156e-18 $lvl1=2 $lvl2=4
CD77 Y:14 VSS!:8 2.7525e-18 $lvl1=1 $lvl2=2
CD78 Y:10 VSS!:5 2.18329e-18 $lvl1=2 $lvl2=2
CD79 Y:10 VSS!:10 2.16722e-18 $lvl1=2 $lvl2=2
CD80 Y VSS!:15 2.02945e-18 $lvl1=1 $lvl2=1
CD81 Y:10 VSS!:15 1.95611e-18 $lvl1=2 $lvl2=1
CD82 Y VSS!:14 1.92371e-18 $lvl1=1 $lvl2=1
CD83 Y:14 VSS!:5 1.80989e-18 $lvl1=1 $lvl2=2
CD84 Y:9 VSS!:5 1.75208e-18 $lvl1=2 $lvl2=2
CD85 Y:14 VSS!:1 1.71625e-18 $lvl1=1 $lvl2=2
CD86 Y:6 VSS!:14 1.2978e-18 $lvl1=2 $lvl2=1
CD87 Y:9 VSS!:10 1.29286e-18 $lvl1=2 $lvl2=2
CD88 Y VSS!:10 1.06503e-18 $lvl1=1 $lvl2=2
CD89 Y:6 VSS!:5 9.87888e-19 $lvl1=2 $lvl2=2
CD90 Y:6 VSS!:15 9.7974e-19 $lvl1=2 $lvl2=1
CD91 Y:11 VSS!:15 7.9704e-19 $lvl1=1 $lvl2=1
CD92 Y:6 Mmn3:s 7.61243e-19 $lvl1=2 $lvl2=4
CD93 Y:10 VSS!:8 1.20374e-17 $lvl1=2 $lvl2=2
CD94 Y:6 VSS!:8 1.06004e-17 $lvl1=2 $lvl2=2
CD95 Y:6 VSS!:1 4.15128e-17 $lvl1=2 $lvl2=2
CD96 Y:14 VSS!:15 4.76821e-17 $lvl1=1 $lvl2=1
CD97 Y:9 VSS!:1 9.75744e-18 $lvl1=2 $lvl2=2
CD98 Y:14 VSS!:14 1.65641e-17 $lvl1=1 $lvl2=1
CD99 Y:11 VDD!:1 6.01599e-18 $lvl1=1 $lvl2=2
CD100 Y:2 VDD!:1 4.76954e-18 $lvl1=2 $lvl2=2
CD101 Y:11 VDD!:8 3.6566e-18 $lvl1=1 $lvl2=2
CD102 Y:1 VDD!:9 3.28628e-18 $lvl1=2 $lvl2=1
CD103 Y:1 VDD!:6 2.96856e-18 $lvl1=2 $lvl2=4
CD104 Y:11 VDD!:5 2.81563e-18 $lvl1=1 $lvl2=2
CD105 Y:5 VDD! 2.33369e-18 $lvl1=2 $lvl2=1
CD106 Mmp3:d VDD!:8 2.24397e-18 $lvl1=4 $lvl2=2
CD107 Y VDD!:10 1.73137e-18 $lvl1=1 $lvl2=1
CD108 Mmp3:d VDD!:5 1.60274e-18 $lvl1=4 $lvl2=2
CD109 Y:2 VDD!:10 1.47244e-18 $lvl1=2 $lvl2=1
CD110 Y VDD!:9 1.23271e-18 $lvl1=1 $lvl2=1
CD111 Y VDD!:1 1.14999e-18 $lvl1=1 $lvl2=2
CD112 Y:1 Mmp3:s 1.00097e-18 $lvl1=2 $lvl2=4
CD113 Y:9 VDD! 8.46004e-19 $lvl1=2 $lvl2=1
CD114 Y:2 VDD! 8.20565e-19 $lvl1=2 $lvl2=1
CD115 Y:1 VDD! 4.91583e-17 $lvl1=2 $lvl2=1
CD116 Y:1 VDD!:10 8.85385e-18 $lvl1=2 $lvl2=1
CD117 Y:1 VDD!:8 1.41688e-17 $lvl1=2 $lvl2=2
CD118 Y:1 VDD!:5 2.28724e-17 $lvl1=2 $lvl2=2
CD119 Y:5 VDD!:1 7.89114e-18 $lvl1=2 $lvl2=2
CD120 Y:14 VDD! 2.85979e-17 $lvl1=1 $lvl2=1
CD121 Y:11 VDD! 3.53254e-17 $lvl1=1 $lvl2=1
CD122 Y:11 VDD!:10 2.40423e-17 $lvl1=1 $lvl2=1
CD123 Y VDD! 3.61836e-17 $lvl1=1 $lvl2=1
CD124 Y:1 VDD!:1 9.30439e-17 $lvl1=2 $lvl2=2
CD125 Y:11 VDD!:9 9.96762e-18 $lvl1=1 $lvl2=1
CD126 Y:6 VDD! 8.74717e-18 $lvl1=2 $lvl2=1
ReD37 Y:11 Y:12 0.112177 $metal1  $L=0.26025 $W=0.290000 $SI_W=0.29 $TYPE=10 $DIR=0 $LLX=2.040000 $LLY=3.045000 $URX=2.300000 $URY=3.335000 $lvl=1
ReD38 Y:12 Y 0.608293 $metal1  $L=1.26525 $W=0.260000 $SI_W=0.26 $TYPE=10 $DIR=1 $LLX=2.170000 $LLY=1.925000 $URX=2.430000 $URY=3.190000 $lvl=1
ReD39 Y Y:13 0.632091 $metal1  $L=1.31475 $W=0.260000 $SI_W=0.26 $TYPE=10 $DIR=1 $LLX=2.170000 $LLY=0.610000 $URX=2.430000 $URY=1.925000 $lvl=1
ReD40 Y:13 Y:14 0.112177 $metal1  $L=0.26025 $W=0.290000 $SI_W=0.29 $TYPE=10 $DIR=0 $LLX=2.040000 $LLY=0.465000 $URX=2.300000 $URY=0.755000 $lvl=1
RfD41 Y:1 Y:2 41.788235 $li  $L=0.555 $W=0.170000 $SI_W=0.17 $TYPE=10 $DIR=1 $LLX=1.955000 $LLY=3.190000 $URX=2.125000 $URY=3.745000 $lvl=2
RfD42 Y:2 Y:4 13.176471 $li  $L=0.175 $W=0.170000 $SI_W=0.17 $TYPE=10 $DIR=1 $LLX=1.955000 $LLY=3.015000 $URX=2.125000 $URY=3.190000 $lvl=2
RfD43 Y:4 Y:5 54.964703 $li  $L=0.73 $W=0.170000 $SI_W=0.17 $TYPE=10 $DIR=1 $LLX=1.955000 $LLY=2.285000 $URX=2.125000 $URY=3.015000 $lvl=2
RfD44 Y:6 Y:8 28.611765 $li  $L=0.38 $W=0.170000 $SI_W=0.17 $TYPE=10 $DIR=1 $LLX=1.955000 $LLY=0.775000 $URX=2.125000 $URY=1.155000 $lvl=2
RfD45 Y:8 Y:9 12.423529 $li  $L=0.165 $W=0.170000 $SI_W=0.17 $TYPE=10 $DIR=1 $LLX=1.955000 $LLY=0.610000 $URX=2.125000 $URY=0.775000 $lvl=2
RfD46 Y:9 Y:10 16.188236 $li  $L=0.215 $W=0.170000 $SI_W=0.17 $TYPE=10 $DIR=1 $LLX=1.955000 $LLY=0.395000 $URX=2.125000 $URY=0.610000 $lvl=2
RhD47 Mmn3:d Y:8 7.500000 $licon_diff  $A=0.0578 $VC=0 $SAVL=0 $SAVC=0 $SI_A=0.0578 $COVER_DIR=0 $LLX=0.000000 $LLY=0.000000 $URX=-0.057800 $URY=-2.000000 $lvl=5