*
*|DSPF 1.5
*
*|DATE "Wed Jan  8 19:40:02 2025"
*|VENDOR "Cadence Design Systems"
*|PROGRAM "Cadence Quantus Extraction"
*|VERSION "22.1.0-p089 Linux 64 bit - (Thu Jan 19 11:47:08 PST 2023)"
*|DESIGN OR4X2_HS
*|DIVIDER /
*|DELIMITER :
*|DeviceFingerDelim "@"
*|BUSBIT []
*|GLOBAL_TEMPERATURE 25
*|OPERATING_TEMPERATURE 25

** *VIA_COVERAGE_CODES
** *index FF FS FP FU SF SS SP SU PF PS PP PU UF US UP UU X_by_Y
** * "FF" stands for Full landing and Full coverage
** *0 0 0 0 0 0 0 0 0 0 0 0 0 0 0 0 0
** *1 0 0 0 0 0 0 0 0 0 0 0 0 0 0 0 1 1x1
** *2 0 0 0 0 0 0 0 0 0 0 0 0 0 0 1 0 1x1
** *3 0 0 0 0 0 0 0 0 0 0 0 0 0 1 0 0 1x1
** *4 0 0 0 0 0 0 0 0 0 0 0 0 1 0 0 0 1x1
** *5 0 0 0 0 0 0 0 0 0 0 0 1 0 0 0 0 1x1
** *6 0 0 0 0 0 0 0 0 0 0 1 0 0 0 0 0 1x1
** *7 0 0 0 0 0 0 0 0 0 1 0 0 0 0 0 0 1x1
** *8 0 0 0 0 0 0 0 0 1 0 0 0 0 0 0 0 1x1
** *9 0 0 0 0 0 0 0 1 0 0 0 0 0 0 0 0 1x1
** *10 0 0 0 0 0 0 1 0 0 0 0 0 0 0 0 0 1x1
** *11 0 0 0 0 0 1 0 0 0 0 0 0 0 0 0 0 1x1
** *12 0 0 0 0 1 0 0 0 0 0 0 0 0 0 0 0 1x1
** *13 0 0 0 1 0 0 0 0 0 0 0 0 0 0 0 0 1x1
** *14 0 0 1 0 0 0 0 0 0 0 0 0 0 0 0 0 1x1
** *15 0 1 0 0 0 0 0 0 0 0 0 0 0 0 0 0 1x1
** *16 1 0 0 0 0 0 0 0 0 0 0 0 0 0 0 0 1x1

** *RESISTOR_TYPES
** *1 SHORTING_ELEMENT
** *2 PRES_NG
** *3 PRES_PG
** *4 PRES_NF
** *5 PRES_PF
** *6 TCN_NDIFF
** *7 TCN_PDIFF
** *8 TCN_NFIELD
** *9 TCN_PFIELD
** *10 QUALITY_EXTRACTED
** *11 GCNLAND
** *12 TCNLAND
** *13 DUMMY
** *14 RSD
** *15 BRIDGE

** *RESISTOR_CURRENT_DIRECTION
** *0 HORIZONTAL
** *1 VERTICAL
** *2 45 DEGREE

** QRC_TECH_DIR /vols/wfo_devel/projects/reference_SKY130/tech/sky130_release_0.0.4/quantus/extraction/typical 
** HIERARCHICAL_SPLIT_PINS_DELIMITER '%'
** caps2d version: 10
*
.SUBCKT  OR4X2_HS A B C D Y
*
*Net Section
*
*|GROUND_NET VSS!
*
*LAYER_MAP
*0 none
*1 metal1
*2 li
*3 poly
*4 diff
*5 licon_diff
*6 mcon
*7 licon
*8 FOX

*|NET C 7.74821e-16
*|P (C X 0 0.9350 1.8350) // $llx=0.9350 $lly=1.8350 $urx=0.9350 $ury=1.8350 $lvl=1
*|I (Mmp2:g Mmp2 g X 0 0.9050 3.3550) // $llx=0.9050 $lly=3.3550 $urx=0.9050 $ury=3.3550 $lvl=3
*|I (Mmn2:g Mmn2 g X 0 0.9050 0.6075) // $llx=0.9050 $lly=0.6075 $urx=0.9050 $ury=0.6075 $lvl=3
*|S (C:8 0.9050 3.8950) // $llx=0.9050 $lly=3.8950 $urx=0.9050 $ury=3.8950 $lvl=3
*|S (C:9 0.9050 1.9500) // $llx=0.9050 $lly=1.9500 $urx=0.9050 $ury=1.9500 $lvl=3
*|S (C:10 0.9050 1.7850) // $llx=0.9050 $lly=1.7850 $urx=0.9050 $ury=1.7850 $lvl=3
*|S (C:11 0.9050 0.2450) // $llx=0.9050 $lly=0.2450 $urx=0.9050 $ury=0.2450 $lvl=3
*|S (C:12 1.0900 1.9500) // $llx=1.0900 $lly=1.9500 $urx=1.0900 $ury=1.9500 $lvl=2
*|S (C:13 0.9200 1.9500) // $llx=0.9200 $lly=1.9500 $urx=0.9200 $ury=1.9500 $lvl=2
*|S (C:14 0.9050 1.9500) // $llx=0.9050 $lly=1.9500 $urx=0.9050 $ury=1.9500 $lvl=2
*|S (C:15 0.7200 1.9500) // $llx=0.7200 $lly=1.9500 $urx=0.7200 $ury=1.9500 $lvl=2
*|S (C:16 0.9200 2.4800) // $llx=0.9200 $lly=2.4800 $urx=0.9200 $ury=2.4800 $lvl=1
*|S (C:17 0.9200 1.9500) // $llx=0.9200 $lly=1.9500 $urx=0.9200 $ury=1.9500 $lvl=1
*|S (C:18 0.9200 1.2400) // $llx=0.9200 $lly=1.2400 $urx=0.9200 $ury=1.2400 $lvl=1
CC1 Mmn2:g VSS! 8.66918e-19 $lvl=3
CC2 C:8 VSS! 2.74913e-18 $lvl=3
CC3 C:16 VSS! 5.15011e-18 $lvl=1
CC4 C:18 VSS! 4.67469e-18 $lvl=1
CC5 C:14 VSS! 5.4638e-18 $lvl=2
CC6 C:15 VSS! 4.32262e-18 $lvl=2
CC7 C:13 VSS! 4.74604e-18 $lvl=2
CC8 C:9 VSS! 2.10157e-17 $lvl=3
CC9 C VSS! 2.78974e-18 $lvl=1
CC10 C:9 n3:4 6.76866e-19 $lvl1=3 $lvl2=2
CC11 C:16 n3:3 5.75684e-19 $lvl1=1 $lvl2=2
CC12 C:9 n3:3 3.18872e-19 $lvl1=3 $lvl2=2
CC13 C:13 n3:4 2.94888e-19 $lvl1=2 $lvl2=2
CC14 C:8 n3:4 1.5793e-18 $lvl1=3 $lvl2=2
CC15 C:8 n3 1.84059e-18 $lvl1=3 $lvl2=2
CC16 C:8 n3:3 7.09818e-17 $lvl1=3 $lvl2=2
CC17 C:16 n3:4 1.5886e-18 $lvl1=1 $lvl2=2
CC18 C:16 n2:4 1.15879e-18 $lvl1=1 $lvl2=2
CC19 C:9 n2:4 5.94337e-19 $lvl1=3 $lvl2=2
CC20 C:16 n2:3 4.58044e-19 $lvl1=1 $lvl2=2
CC21 C:9 n2:3 2.91357e-19 $lvl1=3 $lvl2=2
CC22 C:8 n2:4 1.63833e-18 $lvl1=3 $lvl2=2
CC23 C:8 n2 1.88976e-18 $lvl1=3 $lvl2=2
CC24 C:8 n2:3 7.12012e-17 $lvl1=3 $lvl2=2
CC25 C:16 n0:44 3.54993e-18 $lvl1=1 $lvl2=1
CC26 C:18 n0:51 2.14232e-18 $lvl1=1 $lvl2=1
CC27 C:8 n0:23 1.58663e-18 $lvl1=3 $lvl2=2
CC28 C:16 n0:46 1.05566e-18 $lvl1=1 $lvl2=1
CC29 C:18 n0:28 1.00704e-18 $lvl1=1 $lvl2=2
CC30 C:9 n0:45 9.97821e-19 $lvl1=3 $lvl2=1
CC31 C:16 n0:27 8.06767e-19 $lvl1=1 $lvl2=2
CC32 C:13 n0:45 7.86951e-19 $lvl1=2 $lvl2=1
CC33 C:8 n0:45 6.85094e-19 $lvl1=3 $lvl2=1
CC34 C n0:45 6.85082e-19 $lvl1=1 $lvl2=1
CC35 C:18 n0:45 6.36314e-19 $lvl1=1 $lvl2=1
CC36 C:14 n0:45 6.34155e-19 $lvl1=2 $lvl2=1
CC37 C:16 n0:23 5.70613e-19 $lvl1=1 $lvl2=2
CC38 C:9 n0:23 4.99412e-19 $lvl1=3 $lvl2=2
CC39 C:18 n0:31 4.72001e-19 $lvl1=1 $lvl2=2
CC40 C:18 n0:42 4.68234e-19 $lvl1=1 $lvl2=1
CC41 C:9 n0:27 4.41141e-19 $lvl1=3 $lvl2=2
CC42 C:16 n0:26 4.18109e-19 $lvl1=1 $lvl2=2
CC43 C:18 n0:47 3.75677e-19 $lvl1=1 $lvl2=1
CC44 C:9 n0:42 3.51999e-19 $lvl1=3 $lvl2=1
CC45 C:15 n0:45 3.41574e-19 $lvl1=2 $lvl2=1
CC46 C:8 n0:44 3.31916e-19 $lvl1=3 $lvl2=1
CC47 Mmn2:g n0:32 3.2992e-19 $lvl1=3 $lvl2=2
CC48 C:9 n0:17 3.141e-19 $lvl1=3 $lvl2=3
CC49 C:13 n0:42 3.05161e-19 $lvl1=2 $lvl2=1
CC50 C:18 n0:49 3.02653e-19 $lvl1=1 $lvl2=1
CC51 C:18 n0:46 3.01019e-19 $lvl1=1 $lvl2=1
CC52 C:9 n0:28 2.99103e-19 $lvl1=3 $lvl2=2
CC53 C:8 n0:27 2.97843e-19 $lvl1=3 $lvl2=2
CC54 C n0:42 2.85359e-19 $lvl1=1 $lvl2=1
CC55 C:15 n0:27 2.68606e-19 $lvl1=2 $lvl2=2
CC56 C:18 n0:50 2.34313e-19 $lvl1=1 $lvl2=1
CC57 C:16 n0:53 2.32866e-19 $lvl1=1 $lvl2=1
CC58 C:15 n0:42 2.25543e-19 $lvl1=2 $lvl2=1
CC59 C:13 n0:23 2.23818e-19 $lvl1=2 $lvl2=2
CC60 C:8 n0:42 2.22901e-19 $lvl1=3 $lvl2=1
CC61 C:15 n0:23 2.2126e-19 $lvl1=2 $lvl2=2
CC62 Mmn2:g n0:33 2.16163e-19 $lvl1=3 $lvl2=2
CC63 C:9 n0:41 2.10773e-19 $lvl1=3 $lvl2=2
CC64 C:16 n0:47 2.0709e-19 $lvl1=1 $lvl2=1
CC65 C:18 n0:48 1.97727e-19 $lvl1=1 $lvl2=1
CC66 C n0:53 1.94368e-19 $lvl1=1 $lvl2=1
CC67 C:18 n0:44 1.8081e-19 $lvl1=1 $lvl2=1
CC68 C:9 n0:26 1.80444e-19 $lvl1=3 $lvl2=2
CC69 C n0:46 1.70766e-19 $lvl1=1 $lvl2=1
CC70 C:13 n0:27 1.70408e-19 $lvl1=2 $lvl2=2
CC71 C:9 Mmp3:d 1.58789e-19 $lvl1=3 $lvl2=4
CC72 C:13 n0:44 1.31697e-19 $lvl1=2 $lvl2=1
CC73 C:18 n0:23 1.25758e-19 $lvl1=1 $lvl2=2
CC74 C n0:47 1.24441e-19 $lvl1=1 $lvl2=1
CC75 C:15 n0:44 1.1962e-19 $lvl1=2 $lvl2=1
CC76 C n0:44 1.1761e-19 $lvl1=1 $lvl2=1
CC77 C:15 n0:26 1.16284e-19 $lvl1=2 $lvl2=2
CC78 C:14 n0:44 1.15608e-19 $lvl1=2 $lvl2=1
CC79 C:9 n0:46 1.07643e-19 $lvl1=3 $lvl2=1
CC80 Mmn2:g n0:31 1.07328e-19 $lvl1=3 $lvl2=2
CC81 C:16 n0:49 1.06781e-19 $lvl1=1 $lvl2=1
CC82 C:14 n0:17 1.00505e-19 $lvl1=2 $lvl2=3
CC83 C:18 n0:53 6.58251e-18 $lvl1=1 $lvl2=1
CC84 C:16 n0:42 4.94458e-18 $lvl1=1 $lvl2=1
CC85 C:16 n0:45 3.25924e-17 $lvl1=1 $lvl2=1
CC86 Mmn2:g n0:28 6.68345e-17 $lvl1=3 $lvl2=2
CC87 C:18 VSS!:23 1.29924e-18 $lvl1=1 $lvl2=1
CC88 Mmn2:g VSS!:10 1.28484e-18 $lvl1=3 $lvl2=2
CC89 C:18 VSS!:17 1.1013e-18 $lvl1=1 $lvl2=2
CC90 C:18 VSS!:24 4.50388e-19 $lvl1=1 $lvl2=1
CC91 Mmn2:g VSS!:21 3.96721e-19 $lvl1=3 $lvl2=2
CC92 C:16 VSS!:23 3.35936e-19 $lvl1=1 $lvl2=1
CC93 C:9 VSS!:17 2.99824e-19 $lvl1=3 $lvl2=2
CC94 C VSS!:23 2.78407e-19 $lvl1=1 $lvl2=1
CC95 Mmn2:g VSS!:6 7.6131e-18 $lvl1=3 $lvl2=2
CC96 Mmn2:g VSS!:17 6.71035e-17 $lvl1=3 $lvl2=2
CC97 C:15 VDD! 2.22354e-18 $lvl1=2 $lvl2=1
CC98 C VDD! 1.78628e-18 $lvl1=1 $lvl2=1
CC99 C:13 VDD! 1.5004e-18 $lvl1=2 $lvl2=1
CC100 C:14 VDD! 1.36576e-18 $lvl1=2 $lvl2=1
CC101 C:16 VDD!:14 1.16174e-18 $lvl1=1 $lvl2=1
CC102 C:9 VDD!:1 1.05928e-18 $lvl1=3 $lvl2=2
CC103 C:16 VDD!:1 7.67069e-19 $lvl1=1 $lvl2=2
CC104 C:14 VDD!:1 6.9323e-19 $lvl1=2 $lvl2=2
CC105 C:8 VDD!:1 5.7437e-19 $lvl1=3 $lvl2=2
CC106 C:8 VDD!:5 1.17894e-17 $lvl1=3 $lvl2=2
CC107 C:16 VDD! 7.35297e-18 $lvl1=1 $lvl2=1
CC108 C:18 VDD! 5.71935e-18 $lvl1=1 $lvl2=1
CC109 C:9 VDD! 1.25675e-17 $lvl1=3 $lvl2=1
CC110 C:9 D 3.06727e-18 $lvl1=3 $lvl2=1
CC111 Mmn2:g D:9 2.60907e-18 $lvl1=3 $lvl2=3
CC112 C:9 D:9 2.17813e-18 $lvl1=3 $lvl2=3
CC113 C:9 D:14 1.46889e-18 $lvl1=3 $lvl2=2
CC114 C:18 D:9 9.96124e-19 $lvl1=1 $lvl2=3
CC115 C:14 D 9.88496e-19 $lvl1=2 $lvl2=1
CC116 C:15 D:9 8.00399e-19 $lvl1=2 $lvl2=3
CC117 C:13 D:14 7.76494e-19 $lvl1=2 $lvl2=2
CC118 C:15 D:14 7.17681e-19 $lvl1=2 $lvl2=2
CC119 C:16 D:17 6.09888e-19 $lvl1=1 $lvl2=1
CC120 C:9 D:8 5.792e-19 $lvl1=3 $lvl2=3
CC121 C:13 D:9 5.00344e-19 $lvl1=2 $lvl2=3
CC122 Mmn2:g D:14 4.81228e-19 $lvl1=3 $lvl2=2
CC123 C:14 D:14 4.4991e-19 $lvl1=2 $lvl2=2
CC124 C:15 D 5.36573e-18 $lvl1=2 $lvl2=1
CC125 C:18 D:14 5.26107e-18 $lvl1=1 $lvl2=2
CC126 C:13 D 5.39111e-18 $lvl1=2 $lvl2=1
CC127 C:18 D:17 2.48544e-17 $lvl1=1 $lvl2=1
CC128 C D 2.11593e-17 $lvl1=1 $lvl2=1
CC129 C:16 D 2.6122e-17 $lvl1=1 $lvl2=1
CC130 C:18 D 4.03653e-17 $lvl1=1 $lvl2=1
ReC27 C:16 C:17 0.254808 $metal1  $L=0.53 $W=0.260000 $SI_W=0.26 $TYPE=10 $DIR=1 $LLX=0.790000 $LLY=1.950000 $URX=1.050000 $URY=2.480000 $lvl=1
ReC28 C:17 C 0.055288 $metal1  $L=0.115 $W=0.260000 $SI_W=0.26 $TYPE=10 $DIR=1 $LLX=0.790000 $LLY=1.835000 $URX=1.050000 $URY=1.950000 $lvl=1
ReC29 C C:18 0.286058 $metal1  $L=0.595 $W=0.260000 $SI_W=0.26 $TYPE=10 $DIR=1 $LLX=0.790000 $LLY=1.240000 $URX=1.050000 $URY=1.835000 $lvl=1
RfC30 C:12 C:13 12.800000 $li  $L=0.17 $W=0.170000 $SI_W=0.17 $TYPE=10 $DIR=0 $LLX=0.920000 $LLY=1.865000 $URX=1.090000 $URY=2.035000 $lvl=2
RfC31 C:13 C:14 1.129412 $li  $L=0.015 $W=1000000 $SI_W=1000000 $TYPE=1,10 $DIR=0 $LLX=0.905000 $LLY=1.865000 $URX=0.920000 $URY=2.035000 $lvl=2
RfC32 C:14 C:15 13.929413 $li  $L=0.185 $W=0.170000 $SI_W=0.17 $TYPE=10 $DIR=0 $LLX=0.720000 $LLY=1.865000 $URX=0.905000 $URY=2.035000 $lvl=2
RgC33 C:8 Mmp2:g 173.519989 $poly  $L=0.54 $W=0.150000 $SI_W=0.15 $TYPE=10 $DIR=1 $LLX=0.830000 $LLY=3.355000 $URX=0.980000 $URY=3.895000 $lvl=3
RgC34 Mmp2:g C:9 432.632416 $poly  $L=1.405 $W=0.150000 $SI_W=0.15 $TYPE=10 $DIR=1 $LLX=0.830000 $LLY=1.950000 $URX=0.980000 $URY=3.355000 $lvl=3
RgC35 C:9 C:10 34.134449 $poly  $L=0.1645 $W=0.270000 $SI_W=0.27 $TYPE=10 $DIR=1 $LLX=0.770000 $LLY=1.785500 $URX=1.040000 $URY=1.950000 $lvl=3
RgC36 C:10 Mmn2:g 378.414642 $poly  $L=1.1775 $W=0.150000 $SI_W=0.15 $TYPE=10 $DIR=1 $LLX=0.830000 $LLY=0.607500 $URX=0.980000 $URY=1.785000 $lvl=3
RgC37 Mmn2:g C:11 116.483322 $poly  $L=0.3625 $W=0.150000 $SI_W=0.15 $TYPE=10 $DIR=1 $LLX=0.830000 $LLY=0.245000 $URX=0.980000 $URY=0.607500 $lvl=3
RjC38 C:13 C:17 152.000000 $mcon  $L=0.17 $W=0.17 $A=0.0289 $VC=0 $SAVL=0 $SAVC=0 $SI_A=0.0289 $COVER_DIR=0 $LLX=0.000000 $LLY=0.000000 $URX=0.170000 $URY=0.170000 $lvl=6
RiC39 C:9 C:14 15.000000 $licon  $L=0.17 $W=0.17 $A=0.0289 $VC=0 $SAVL=0 $SAVC=0 $SI_A=0.0289 $COVER_DIR=0 $LLX=0.000000 $LLY=0.000000 $URX=0.170000 $URY=0.170000 $lvl=7
*
*|NET D 7.5955e-16
*|P (D X 0 0.4650 1.5450) // $llx=0.4650 $lly=1.5450 $urx=0.4650 $ury=1.5450 $lvl=1
*|I (Mmp3:g Mmp3 g X 0 0.4750 3.3550) // $llx=0.4750 $lly=3.3550 $urx=0.4750 $ury=3.3550 $lvl=3
*|I (Mmn3:g Mmn3 g X 0 0.4750 0.6075) // $llx=0.4750 $lly=0.6075 $urx=0.4750 $ury=0.6075 $lvl=3
*|S (D:8 0.4750 3.8950) // $llx=0.4750 $lly=3.8950 $urx=0.4750 $ury=3.8950 $lvl=3
*|S (D:9 0.4700 1.0950) // $llx=0.4700 $lly=1.0950 $urx=0.4700 $ury=1.0950 $lvl=3
*|S (D:10 0.4700 0.9300) // $llx=0.4700 $lly=0.9300 $urx=0.4700 $ury=0.9300 $lvl=3
*|S (D:11 0.4750 0.2450) // $llx=0.4750 $lly=0.2450 $urx=0.4750 $ury=0.2450 $lvl=3
*|S (D:12 0.6500 1.0950) // $llx=0.6500 $lly=1.0950 $urx=0.6500 $ury=1.0950 $lvl=2
*|S (D:13 0.4700 1.0950) // $llx=0.4700 $lly=1.0950 $urx=0.4700 $ury=1.0950 $lvl=2
*|S (D:14 0.4500 1.0950) // $llx=0.4500 $lly=1.0950 $urx=0.4500 $ury=1.0950 $lvl=2
*|S (D:15 0.4500 2.1900) // $llx=0.4500 $lly=2.1900 $urx=0.4500 $ury=2.1900 $lvl=1
*|S (D:16 0.4500 1.0950) // $llx=0.4500 $lly=1.0950 $urx=0.4500 $ury=1.0950 $lvl=1
*|S (D:17 0.4500 0.9500) // $llx=0.4500 $lly=0.9500 $urx=0.4500 $ury=0.9500 $lvl=1
CD1 Mmn3:g VSS! 1.18908e-18 $lvl=3
CD2 D:8 VSS! 3.09908e-18 $lvl=3
CD3 D:17 VSS! 7.82533e-18 $lvl=1
CD4 D:14 VSS! 6.72133e-18 $lvl=2
CD5 D:9 VSS! 1.82824e-17 $lvl=3
CD6 D VSS! 1.11341e-17 $lvl=1
CD7 D:8 n3 1.4327e-18 $lvl1=3 $lvl2=2
CD8 D n3:4 9.09281e-19 $lvl1=1 $lvl2=2
CD9 D:8 n3:3 6.91444e-17 $lvl1=3 $lvl2=2
CD10 D:8 n3:4 1.52836e-18 $lvl1=3 $lvl2=2
CD11 D n0:45 3.31531e-18 $lvl1=1 $lvl2=1
CD12 D:14 n0:53 2.53978e-18 $lvl1=2 $lvl2=1
CD13 D:14 n0:31 2.38591e-18 $lvl1=2 $lvl2=2
CD14 D:17 n0:31 1.97343e-18 $lvl1=1 $lvl2=2
CD15 D n0:44 1.92454e-18 $lvl1=1 $lvl2=1
CD16 D n0:27 1.70691e-18 $lvl1=1 $lvl2=2
CD17 D:17 n0:28 1.65548e-18 $lvl1=1 $lvl2=2
CD18 D n0:23 1.65433e-18 $lvl1=1 $lvl2=2
CD19 D n0:53 1.56672e-18 $lvl1=1 $lvl2=1
CD20 D:8 n0:27 1.51523e-18 $lvl1=3 $lvl2=2
CD21 D:17 n0:51 1.30624e-18 $lvl1=1 $lvl2=1
CD22 D:9 Mmn2:d 1.19131e-18 $lvl1=3 $lvl2=4
CD23 D n0:26 7.76282e-19 $lvl1=1 $lvl2=2
CD24 D:17 n0:42 6.35201e-19 $lvl1=1 $lvl2=1
CD25 D n0:46 5.81643e-19 $lvl1=1 $lvl2=1
CD26 D n0:51 5.75716e-19 $lvl1=1 $lvl2=1
CD27 Mmn3:g n0:32 4.90593e-19 $lvl1=3 $lvl2=2
CD28 D:8 n0:42 3.43204e-19 $lvl1=3 $lvl2=1
CD29 D:14 n0:51 3.05645e-19 $lvl1=2 $lvl2=1
CD30 D n0:47 2.94634e-19 $lvl1=1 $lvl2=1
CD31 D Mmp3:d 2.86018e-19 $lvl1=1 $lvl2=4
CD32 D:17 n0:45 2.7264e-19 $lvl1=1 $lvl2=1
CD33 D:17 n0:49 2.55656e-19 $lvl1=1 $lvl2=1
CD34 D:14 n0:42 2.34882e-19 $lvl1=2 $lvl2=1
CD35 D:17 n0:46 2.21118e-19 $lvl1=1 $lvl2=1
CD36 D n0:28 1.99297e-19 $lvl1=1 $lvl2=2
CD37 D n0:49 1.87595e-19 $lvl1=1 $lvl2=1
CD38 D:9 n0:31 1.8224e-19 $lvl1=3 $lvl2=2
CD39 D n0:42 7.3554e-18 $lvl1=1 $lvl2=1
CD40 D:9 n0:28 8.3152e-18 $lvl1=3 $lvl2=2
CD41 D:8 n0:23 1.32633e-16 $lvl1=3 $lvl2=2
CD42 Mmn3:g n0:28 6.60238e-17 $lvl1=3 $lvl2=2
CD43 D:14 n0:28 1.30601e-17 $lvl1=2 $lvl2=2
CD44 D:17 n0:53 2.24326e-17 $lvl1=1 $lvl2=1
CD45 D:14 VSS!:17 2.025e-18 $lvl1=2 $lvl2=2
CD46 D:9 Mmn3:s 1.93742e-18 $lvl1=3 $lvl2=4
CD47 D VSS!:23 1.89872e-18 $lvl1=1 $lvl2=1
CD48 D VSS!:24 1.85342e-18 $lvl1=1 $lvl2=1
CD49 D VSS!:21 1.69714e-18 $lvl1=1 $lvl2=2
CD50 Mmn3:g VSS!:6 1.51012e-18 $lvl1=3 $lvl2=2
CD51 D:9 VSS!:17 9.35453e-19 $lvl1=3 $lvl2=2
CD52 D:14 VSS!:24 8.44489e-19 $lvl1=2 $lvl2=1
CD53 D:17 VSS!:17 7.92916e-19 $lvl1=1 $lvl2=2
CD54 D:17 VSS!:10 7.50676e-19 $lvl1=1 $lvl2=2
CD55 Mmn3:g VSS!:17 5.913e-19 $lvl1=3 $lvl2=2
CD56 D:14 VSS!:23 4.63423e-19 $lvl1=2 $lvl2=1
CD57 D:17 VSS!:11 4.31989e-19 $lvl1=1 $lvl2=2
CD58 D:17 VSS!:6 4.08808e-19 $lvl1=1 $lvl2=2
CD59 D VSS!:11 2.70735e-19 $lvl1=1 $lvl2=2
CD60 D:14 VSS!:11 2.38937e-19 $lvl1=2 $lvl2=2
CD61 D:17 VSS!:21 5.61889e-18 $lvl1=1 $lvl2=2
CD62 D:17 VSS!:24 3.95339e-18 $lvl1=1 $lvl2=1
CD63 D:9 VSS!:21 1.00273e-17 $lvl1=3 $lvl2=2
CD64 Mmn3:g VSS!:21 6.79202e-17 $lvl1=3 $lvl2=2
CD65 Mmn3:g VSS!:10 6.47963e-18 $lvl1=3 $lvl2=2
CD66 D:14 VSS!:21 1.66857e-17 $lvl1=2 $lvl2=2
CD67 D:17 VSS!:23 3.81046e-18 $lvl1=1 $lvl2=1
CD68 D VDD!:14 1.90973e-18 $lvl1=1 $lvl2=1
CD69 D VDD!:15 1.23618e-18 $lvl1=1 $lvl2=1
CD70 D:14 VDD! 5.93338e-18 $lvl1=2 $lvl2=1
CD71 D:17 VDD! 1.52067e-17 $lvl1=1 $lvl2=1
CD72 D:9 VDD! 5.47863e-18 $lvl1=3 $lvl2=1
CD73 D VDD! 2.97783e-17 $lvl1=1 $lvl2=1
CD74 D:8 VDD!:5 9.91534e-18 $lvl1=3 $lvl2=2
ReD40 D:15 D 0.310096 $metal1  $L=0.645 $W=0.260000 $SI_W=0.26 $TYPE=10 $DIR=1 $LLX=0.320000 $LLY=1.545000 $URX=0.580000 $URY=2.190000 $lvl=1
ReD41 D D:16 0.216346 $metal1  $L=0.45 $W=0.260000 $SI_W=0.26 $TYPE=10 $DIR=1 $LLX=0.320000 $LLY=1.095000 $URX=0.580000 $URY=1.545000 $lvl=1
ReD42 D:16 D:17 0.069712 $metal1  $L=0.145 $W=0.260000 $SI_W=0.26 $TYPE=10 $DIR=1 $LLX=0.320000 $LLY=0.950000 $URX=0.580000 $URY=1.095000 $lvl=1
RfD43 D:12 D:13 13.552942 $li  $L=0.18 $W=0.170000 $SI_W=0.17 $TYPE=10 $DIR=0 $LLX=0.470000 $LLY=1.010000 $URX=0.650000 $URY=1.180000 $lvl=2
RfD44 D:13 D:14 1.505882 $li  $L=0.02 $W=1000000 $SI_W=1000000 $TYPE=1,10 $DIR=0 $LLX=0.450000 $LLY=1.010000 $URX=0.470000 $URY=1.180000 $lvl=2
RgD45 D:8 Mmp3:g 173.519989 $poly  $L=0.54 $W=0.150000 $SI_W=0.15 $TYPE=10 $DIR=1 $LLX=0.400000 $LLY=3.355000 $URX=0.550000 $URY=3.895000 $lvl=3
RgD46 Mmp3:g D:9 707.372437 $poly  $L=2.26 $W=0.150000 $SI_W=0.15 $TYPE=10 $DIR=1 $LLX=0.400000 $LLY=1.095000 $URX=0.550000 $URY=3.355000 $lvl=3
RgD47 D:9 D:10 34.134449 $poly  $L=0.1645 $W=0.270000 $SI_W=0.27 $TYPE=10 $DIR=1 $LLX=0.335000 $LLY=0.930500 $URX=0.605000 $URY=1.095000 $lvl=3
RgD48 D:10 Mmn3:g 103.674629 $poly  $L=0.3225 $W=0.150000 $SI_W=0.15 $TYPE=10 $DIR=1 $LLX=0.400000 $LLY=0.607500 $URX=0.550000 $URY=0.930000 $lvl=3
RgD49 Mmn3:g D:11 116.483322 $poly  $L=0.3625 $W=0.150000 $SI_W=0.15 $TYPE=10 $DIR=1 $LLX=0.400000 $LLY=0.245000 $URX=0.550000 $URY=0.607500 $lvl=3
RjD50 D:14 D:16 152.000000 $mcon  $L=0.17 $W=0.17 $A=0.0289 $VC=0 $SAVL=0 $SAVC=0 $SI_A=0.0289 $COVER_DIR=0 $LLX=0.000000 $LLY=0.000000 $URX=0.170000 $URY=0.170000 $lvl=6
RiD51 D:9 D:13 15.000000 $licon  $L=0.17 $W=0.17 $A=0.0289 $VC=0 $SAVL=0 $SAVC=0 $SI_A=0.0289 $COVER_DIR=0 $LLX=0.000000 $LLY=0.000000 $URX=0.170000 $URY=0.170000 $lvl=7
*
*|NET A 8.08317e-16
*|P (A X 0 1.8550 1.8700) // $llx=1.8550 $lly=1.8700 $urx=1.8550 $ury=1.8700 $lvl=1
*|I (Mmp0:g Mmp0 g X 0 1.7650 3.3550) // $llx=1.7650 $lly=3.3550 $urx=1.7650 $ury=3.3550 $lvl=3
*|I (Mmn0:g Mmn0 g X 0 1.7650 0.6075) // $llx=1.7650 $lly=0.6075 $urx=1.7650 $ury=0.6075 $lvl=3
*|S (A:8 1.7650 3.8950) // $llx=1.7650 $lly=3.8950 $urx=1.7650 $ury=3.8950 $lvl=3
*|S (A:9 1.7550 1.9500) // $llx=1.7550 $lly=1.9500 $urx=1.7550 $ury=1.9500 $lvl=3
*|S (A:10 1.7550 1.7850) // $llx=1.7550 $lly=1.7850 $urx=1.7550 $ury=1.7850 $lvl=3
*|S (A:11 1.7650 0.2450) // $llx=1.7650 $lly=0.2450 $urx=1.7650 $ury=0.2450 $lvl=3
*|S (A:12 2.0050 1.9500) // $llx=2.0050 $lly=1.9500 $urx=2.0050 $ury=1.9500 $lvl=2
*|S (A:13 1.8400 1.9500) // $llx=1.8400 $lly=1.9500 $urx=1.8400 $ury=1.9500 $lvl=2
*|S (A:14 1.7550 1.9500) // $llx=1.7550 $lly=1.9500 $urx=1.7550 $ury=1.9500 $lvl=2
*|S (A:15 1.5700 1.9500) // $llx=1.5700 $lly=1.9500 $urx=1.5700 $ury=1.9500 $lvl=2
*|S (A:16 1.8400 2.5150) // $llx=1.8400 $lly=2.5150 $urx=1.8400 $ury=2.5150 $lvl=1
*|S (A:17 1.8400 1.9500) // $llx=1.8400 $lly=1.9500 $urx=1.8400 $ury=1.9500 $lvl=1
*|S (A:18 1.8400 1.2750) // $llx=1.8400 $lly=1.2750 $urx=1.8400 $ury=1.2750 $lvl=1
CA1 Mmn0:g VSS! 1.6442e-18 $lvl=3
CA2 Mmp0:g VSS! 2.59198e-18 $lvl=3
CA3 A:16 VSS! 5.13666e-18 $lvl=1
CA4 A:18 VSS! 4.51817e-18 $lvl=1
CA5 A:12 VSS! 3.88258e-18 $lvl=2
CA6 A:15 VSS! 3.59077e-18 $lvl=2
CA7 A:13 VSS! 4.43199e-18 $lvl=2
CA8 A:9 VSS! 1.71929e-17 $lvl=3
CA9 A VSS! 3.29436e-18 $lvl=1
CA10 Mmp0:g n1:4 1.2538e-18 $lvl1=3 $lvl2=2
CA11 A:16 n1:4 5.80583e-19 $lvl1=1 $lvl2=2
CA12 A:9 n1:4 3.12812e-19 $lvl1=3 $lvl2=2
CA13 Mmp0:g n1 1.66857e-18 $lvl1=3 $lvl2=2
CA14 Mmp0:g n1:3 6.95995e-17 $lvl1=3 $lvl2=2
CA15 A:18 n0:41 3.77558e-18 $lvl1=1 $lvl2=2
CA16 A:13 n0:47 3.43463e-18 $lvl1=2 $lvl2=1
CA17 A:12 n0:17 3.36541e-18 $lvl1=2 $lvl2=3
CA18 A n0:46 3.05779e-18 $lvl1=1 $lvl2=1
CA19 A:12 n0:47 2.71965e-18 $lvl1=2 $lvl2=1
CA20 A:12 n0:41 2.40229e-18 $lvl1=2 $lvl2=2
CA21 A:9 n0:22 2.35491e-18 $lvl1=3 $lvl2=3
CA22 A:13 n0:41 2.28492e-18 $lvl1=2 $lvl2=2
CA23 A:9 n0:41 2.03174e-18 $lvl1=3 $lvl2=2
CA24 A:12 n0:39 1.92556e-18 $lvl1=2 $lvl2=2
CA25 A:12 n0:40 1.48475e-18 $lvl1=2 $lvl2=2
CA26 A:13 n0:46 1.40152e-18 $lvl1=2 $lvl2=1
CA27 A:13 n0:40 1.25565e-18 $lvl1=2 $lvl2=2
CA28 A:18 n0:51 1.19746e-18 $lvl1=1 $lvl2=1
CA29 A:18 n0:46 9.53613e-19 $lvl1=1 $lvl2=1
CA30 A:12 n0:46 9.26316e-19 $lvl1=2 $lvl2=1
CA31 A:18 n0:39 7.77626e-19 $lvl1=1 $lvl2=2
CA32 A:18 n0:50 7.7577e-19 $lvl1=1 $lvl2=1
CA33 A:18 n0:17 7.57482e-19 $lvl1=1 $lvl2=3
CA34 A:15 n0:45 7.37748e-19 $lvl1=2 $lvl2=1
CA35 A:9 n0:45 7.13063e-19 $lvl1=3 $lvl2=1
CA36 A:9 n0:39 6.93784e-19 $lvl1=3 $lvl2=2
CA37 A n0:45 6.85601e-19 $lvl1=1 $lvl2=1
CA38 A:13 n0:39 6.7229e-19 $lvl1=2 $lvl2=2
CA39 A:13 n0:17 6.51439e-19 $lvl1=2 $lvl2=3
CA40 A:12 n0:22 6.21762e-19 $lvl1=2 $lvl2=3
CA41 Mmn0:g n0:37 5.77004e-19 $lvl1=3 $lvl2=2
CA42 A:16 n0:44 5.52684e-19 $lvl1=1 $lvl2=1
CA43 A:13 n0:45 4.63329e-19 $lvl1=2 $lvl2=1
CA44 Mmp0:g n0:45 4.57656e-19 $lvl1=3 $lvl2=1
CA45 A:18 n0:45 4.21101e-19 $lvl1=1 $lvl2=1
CA46 A:18 n0:33 4.1047e-19 $lvl1=1 $lvl2=2
CA47 A:9 n0:40 4.09313e-19 $lvl1=3 $lvl2=2
CA48 A:18 n0:53 3.79816e-19 $lvl1=1 $lvl2=1
CA49 A:9 n0:47 3.61798e-19 $lvl1=3 $lvl2=1
CA50 A:15 n0:17 3.35477e-19 $lvl1=2 $lvl2=3
CA51 A:9 n0:46 3.34015e-19 $lvl1=3 $lvl2=1
CA52 A:15 n0:41 3.26922e-19 $lvl1=2 $lvl2=2
CA53 A:16 n0:42 3.21682e-19 $lvl1=1 $lvl2=1
CA54 A:9 n0:20 2.6659e-19 $lvl1=3 $lvl2=3
CA55 A:9 n0:15 2.6466e-19 $lvl1=3 $lvl2=3
CA56 A:12 n0:45 2.19518e-19 $lvl1=2 $lvl2=1
CA57 A:15 n0:46 2.13431e-19 $lvl1=2 $lvl2=1
CA58 Mmp0:g n0:46 2.11825e-19 $lvl1=3 $lvl2=1
CA59 Mmn0:g n0:17 2.0427e-19 $lvl1=3 $lvl2=3
CA60 Mmn0:g n0:36 1.68705e-19 $lvl1=3 $lvl2=2
CA61 A:18 n0:36 1.63838e-19 $lvl1=1 $lvl2=2
CA62 A:18 n0:44 1.55158e-19 $lvl1=1 $lvl2=1
CA63 A n0:49 1.55011e-19 $lvl1=1 $lvl2=1
CA64 A n0:48 1.49349e-19 $lvl1=1 $lvl2=1
CA65 A:16 n0:49 1.4036e-19 $lvl1=1 $lvl2=1
CA66 A:12 n0:15 1.38651e-19 $lvl1=2 $lvl2=3
CA67 A:16 n0:47 9.49899e-18 $lvl1=1 $lvl2=1
CA68 A:16 n0:45 1.54422e-17 $lvl1=1 $lvl2=1
CA69 A:18 n0:40 4.62724e-18 $lvl1=1 $lvl2=2
CA70 Mmn0:g n0:33 6.5813e-17 $lvl1=3 $lvl2=2
CA71 A:18 n0:49 2.68365e-17 $lvl1=1 $lvl2=1
CA72 A:9 n0:17 6.1207e-18 $lvl1=3 $lvl2=3
CA73 A n0:47 2.41186e-17 $lvl1=1 $lvl2=1
CA74 A:18 n0:48 6.03074e-18 $lvl1=1 $lvl2=1
CA75 A:18 n0:47 5.51038e-17 $lvl1=1 $lvl2=1
CA76 A:16 n0:46 7.62736e-17 $lvl1=1 $lvl2=1
CA77 A:18 VSS!:15 3.22396e-18 $lvl1=1 $lvl2=2
CA78 A:9 VSS!:15 1.16868e-18 $lvl1=3 $lvl2=2
CA79 A:18 VSS!:23 1.00218e-18 $lvl1=1 $lvl2=1
CA80 Mmn0:g VSS!:6 9.60601e-18 $lvl1=3 $lvl2=2
CA81 Mmn0:g VSS!:15 4.03832e-17 $lvl1=3 $lvl2=2
CA82 A:18 VDD! 3.63664e-18 $lvl1=1 $lvl2=1
CA83 A:16 VDD! 3.44543e-18 $lvl1=1 $lvl2=1
CA84 A:9 Mmp4:s 2.20067e-18 $lvl1=3 $lvl2=4
CA85 A VDD! 1.55623e-18 $lvl1=1 $lvl2=1
CA86 A:15 VDD!:1 1.41203e-18 $lvl1=2 $lvl2=2
CA87 A:16 VDD!:14 9.00553e-19 $lvl1=1 $lvl2=1
CA88 A:15 VDD! 7.15677e-19 $lvl1=2 $lvl2=1
CA89 A:12 VDD! 4.67478e-19 $lvl1=2 $lvl2=1
CA90 A:13 VDD!:1 5.08683e-18 $lvl1=2 $lvl2=2
CA91 A:9 VDD!:1 9.9587e-18 $lvl1=3 $lvl2=2
CA92 A:16 VDD!:1 9.84998e-18 $lvl1=1 $lvl2=2
CA93 Mmp0:g VDD!:1 7.2369e-17 $lvl1=3 $lvl2=2
CA94 Mmp0:g VDD!:5 1.16574e-17 $lvl1=3 $lvl2=2
CA95 A:9 VDD! 6.69996e-18 $lvl1=3 $lvl2=1
CA96 A:12 VDD!:1 7.26159e-18 $lvl1=2 $lvl2=2
CA97 A:18 Y 1.49131e-18 $lvl1=1 $lvl2=1
CA98 A:12 Y:5 1.20295e-18 $lvl1=2 $lvl2=2
CA99 A:16 Y 1.07133e-18 $lvl1=1 $lvl2=1
CA100 A:18 Y:12 7.48383e-19 $lvl1=1 $lvl2=1
CA101 A:16 Y:11 7.29362e-19 $lvl1=1 $lvl2=1
CA102 A:12 Y:1 7.12681e-19 $lvl1=2 $lvl2=2
CA103 A:12 Y 6.89657e-19 $lvl1=2 $lvl2=1
CA104 A:9 Y:1 6.13995e-19 $lvl1=3 $lvl2=2
CA105 A Y 5.74296e-19 $lvl1=1 $lvl2=1
CA106 A:16 Y:10 5.32495e-19 $lvl1=1 $lvl2=1
CA107 A:9 Y:5 4.80484e-19 $lvl1=3 $lvl2=2
CA108 A:16 Y:1 4.48575e-19 $lvl1=1 $lvl2=2
CA109 A:13 Y:5 4.07949e-19 $lvl1=2 $lvl2=2
CA110 A:9 C:9 2.73513e-18 $lvl1=3 $lvl2=3
CA111 A:16 C:16 2.44245e-18 $lvl1=1 $lvl2=1
CA112 A:15 C:14 2.00106e-18 $lvl1=2 $lvl2=2
CA113 A:9 C:14 1.49658e-18 $lvl1=3 $lvl2=2
CA114 A:15 C:9 1.28572e-18 $lvl1=2 $lvl2=3
CA115 A:18 C:18 1.19522e-18 $lvl1=1 $lvl2=1
CA116 A:15 C:13 8.11524e-19 $lvl1=2 $lvl2=2
CA117 A:9 C:13 5.22479e-19 $lvl1=3 $lvl2=2
CA118 A:15 C:16 4.68724e-19 $lvl1=2 $lvl2=1
CA119 A:18 C:16 4.486e-19 $lvl1=1 $lvl2=1
CA120 A:9 C:16 4.47252e-19 $lvl1=3 $lvl2=1
CA121 A:13 C:14 4.41773e-19 $lvl1=2 $lvl2=2
CA122 A:15 C:18 4.2142e-19 $lvl1=2 $lvl2=1
CA123 A C:16 3.65489e-19 $lvl1=1 $lvl2=1
CA124 A:16 C:18 3.24328e-19 $lvl1=1 $lvl2=1
CA125 A C:18 3.05431e-19 $lvl1=1 $lvl2=1
CA126 A:16 C:14 2.9933e-19 $lvl1=1 $lvl2=2
CA127 A:9 C:18 2.8141e-19 $lvl1=3 $lvl2=1
CA128 A:16 C 2.79392e-19 $lvl1=1 $lvl2=1
CA129 A:12 C:9 2.76965e-19 $lvl1=2 $lvl2=3
CA130 A:18 C:14 2.71775e-19 $lvl1=1 $lvl2=2
CA131 A:18 C 2.58918e-19 $lvl1=1 $lvl2=1
CA132 Mmn0:g B:9 2.2532e-18 $lvl1=3 $lvl2=3
CA133 A:18 B:13 2.08746e-18 $lvl1=1 $lvl2=2
CA134 A:9 B 1.83179e-18 $lvl1=3 $lvl2=1
CA135 A:9 B:9 1.81718e-18 $lvl1=3 $lvl2=3
CA136 A:18 B:12 1.58423e-18 $lvl1=1 $lvl2=2
CA137 A:12 B 8.02281e-19 $lvl1=2 $lvl2=1
CA138 A:9 B:12 7.7006e-19 $lvl1=3 $lvl2=2
CA139 A:18 B:9 5.50627e-19 $lvl1=1 $lvl2=3
CA140 A:15 B:9 5.4722e-19 $lvl1=2 $lvl2=3
CA141 A:9 Mmp1:g 4.87439e-19 $lvl1=3 $lvl2=3
CA142 A:9 B:13 4.04834e-19 $lvl1=3 $lvl2=2
CA143 A B:18 3.74965e-19 $lvl1=1 $lvl2=1
CA144 Mmn0:g B:12 3.54947e-19 $lvl1=3 $lvl2=2
CA145 A:15 B:13 3.31624e-19 $lvl1=2 $lvl2=2
CA146 A:15 B:12 2.93254e-19 $lvl1=2 $lvl2=2
CA147 A:16 B 2.24482e-17 $lvl1=1 $lvl2=1
CA148 A:15 B 5.61426e-18 $lvl1=2 $lvl2=1
CA149 A:18 B 3.93036e-17 $lvl1=1 $lvl2=1
CA150 A:13 B 4.79409e-18 $lvl1=2 $lvl2=1
CA151 A B 2.23867e-17 $lvl1=1 $lvl2=1
CA152 A:18 B:18 2.05676e-17 $lvl1=1 $lvl2=1
ReA1 A:16 A:17 0.271635 $metal1  $L=0.565 $W=0.260000 $SI_W=0.26 $TYPE=10 $DIR=1 $LLX=1.710000 $LLY=1.950000 $URX=1.970000 $URY=2.515000 $lvl=1
ReA2 A:17 A 0.038462 $metal1  $L=0.08 $W=0.260000 $SI_W=0.26 $TYPE=10 $DIR=1 $LLX=1.710000 $LLY=1.870000 $URX=1.970000 $URY=1.950000 $lvl=1
ReA3 A A:18 0.286058 $metal1  $L=0.595 $W=0.260000 $SI_W=0.26 $TYPE=10 $DIR=1 $LLX=1.710000 $LLY=1.275000 $URX=1.970000 $URY=1.870000 $lvl=1
RfA4 A:12 A:13 12.423529 $li  $L=0.165 $W=0.170000 $SI_W=0.17 $TYPE=10 $DIR=0 $LLX=1.840000 $LLY=1.865000 $URX=2.005000 $URY=2.035000 $lvl=2
RfA5 A:13 A:14 6.400000 $li  $L=0.085 $W=0.170000 $SI_W=0.17 $TYPE=10 $DIR=0 $LLX=1.755000 $LLY=1.865000 $URX=1.840000 $URY=2.035000 $lvl=2
RfA6 A:14 A:15 13.929413 $li  $L=0.185 $W=0.170000 $SI_W=0.17 $TYPE=10 $DIR=0 $LLX=1.570000 $LLY=1.865000 $URX=1.755000 $URY=2.035000 $lvl=2
RgA7 A:8 Mmp0:g 173.519989 $poly  $L=0.54 $W=0.150000 $SI_W=0.15 $TYPE=10 $DIR=1 $LLX=1.690000 $LLY=3.355000 $URX=1.840000 $URY=3.895000 $lvl=3
RgA8 Mmp0:g A:9 432.632416 $poly  $L=1.405 $W=0.150000 $SI_W=0.15 $TYPE=10 $DIR=1 $LLX=1.690000 $LLY=1.950000 $URX=1.840000 $URY=3.355000 $lvl=3
RgA9 A:9 A:10 34.134449 $poly  $L=0.1645 $W=0.270000 $SI_W=0.27 $TYPE=10 $DIR=1 $LLX=1.620000 $LLY=1.785500 $URX=1.890000 $URY=1.950000 $lvl=3
RgA10 A:10 Mmn0:g 378.414642 $poly  $L=1.1775 $W=0.150000 $SI_W=0.15 $TYPE=10 $DIR=1 $LLX=1.690000 $LLY=0.607500 $URX=1.840000 $URY=1.785000 $lvl=3
RgA11 Mmn0:g A:11 116.483322 $poly  $L=0.3625 $W=0.150000 $SI_W=0.15 $TYPE=10 $DIR=1 $LLX=1.690000 $LLY=0.245000 $URX=1.840000 $URY=0.607500 $lvl=3
RjA12 A:13 A:17 152.000000 $mcon  $L=0.17 $W=0.17 $A=0.0289 $VC=0 $SAVL=0 $SAVC=0 $SI_A=0.0289 $COVER_DIR=0 $LLX=0.000000 $LLY=0.000000 $URX=0.170000 $URY=0.170000 $lvl=6
RiA13 A:9 A:14 15.000000 $licon  $L=0.17 $W=0.17 $A=0.0289 $VC=0 $SAVL=0 $SAVC=0 $SI_A=0.0289 $COVER_DIR=0 $LLX=0.000000 $LLY=0.000000 $URX=0.170000 $URY=0.170000 $lvl=7
*
*|NET VSS! 2.13274e-15
*|P (VSS! X 0 1.5250 0.0050) // $llx=1.5250 $lly=0.0050 $urx=1.5250 $ury=0.0050 $lvl=1
*|I (Mmn1:s Mmn1 s X 0 1.2595 0.6075) // $llx=1.2595 $lly=0.6075 $urx=1.2595 $ury=0.6075 $lvl=4
*|I (Mmn1:b Mmn1 b X 0 1.3350 0.6075) // $llx=1.3350 $lly=0.6075 $urx=1.3350 $ury=0.6075 $lvl=8
*|I (Mmn4:s Mmn4 s X 0 2.1795 0.7750) // $llx=2.1795 $lly=0.7750 $urx=2.1795 $ury=0.7750 $lvl=4
*|I (Mmn4:b Mmn4 b X 0 2.2550 0.7750) // $llx=2.2550 $lly=0.7750 $urx=2.2550 $ury=0.7750 $lvl=8
*|I (Mmn4@1:s Mmn4@1 s X 0 2.7605 0.7750) // $llx=2.7605 $lly=0.7750 $urx=2.7605 $ury=0.7750 $lvl=4
*|I (Mmn4@1:b Mmn4@1 b X 0 2.6850 0.7750) // $llx=2.6850 $lly=0.7750 $urx=2.6850 $ury=0.7750 $lvl=8
*|I (Mmn2:s Mmn2 s X 0 0.9805 0.6075) // $llx=0.9805 $lly=0.6075 $urx=0.9805 $ury=0.6075 $lvl=4
*|I (Mmn2:b Mmn2 b X 0 0.9050 0.6075) // $llx=0.9050 $lly=0.6075 $urx=0.9050 $ury=0.6075 $lvl=8
*|I (Mmn3:s Mmn3 s X 0 0.3995 0.6075) // $llx=0.3995 $lly=0.6075 $urx=0.3995 $ury=0.6075 $lvl=4
*|I (Mmn3:b Mmn3 b X 0 0.4750 0.6075) // $llx=0.4750 $lly=0.6075 $urx=0.4750 $ury=0.6075 $lvl=8
*|I (Mmn0:s Mmn0 s X 0 1.8405 0.6075) // $llx=1.8405 $lly=0.6075 $urx=1.8405 $ury=0.6075 $lvl=4
*|I (Mmn0:b Mmn0 b X 0 1.7650 0.6075) // $llx=1.7650 $lly=0.6075 $urx=1.7650 $ury=0.6075 $lvl=8
*|S (VSS!:1 2.9000 1.1550) // $llx=2.9000 $lly=1.1550 $urx=2.9000 $ury=1.1550 $lvl=2
*|S (VSS!:3 2.9000 0.7750) // $llx=2.9000 $lly=0.7750 $urx=2.9000 $ury=0.7750 $lvl=2
*|S (VSS!:4 2.9000 0.0000) // $llx=2.9000 $lly=0.0000 $urx=2.9000 $ury=0.0000 $lvl=2
*|S (VSS!:5 2.0400 0.0000) // $llx=2.0400 $lly=0.0000 $urx=2.0400 $ury=0.0000 $lvl=2
*|S (VSS!:6 1.6100 0.0000) // $llx=1.6100 $lly=0.0000 $urx=1.6100 $ury=0.0000 $lvl=2
*|S (VSS!:7 1.6100 0.0000) // $llx=1.6100 $lly=0.0000 $urx=1.6100 $ury=0.0000 $lvl=4
*|S (VSS!:9 1.1200 0.0000) // $llx=1.1200 $lly=0.0000 $urx=1.1200 $ury=0.0000 $lvl=2
*|S (VSS!:10 0.2600 0.0000) // $llx=0.2600 $lly=0.0000 $urx=0.2600 $ury=0.0000 $lvl=2
*|S (VSS!:11 0.0000 0.0000) // $llx=0.0000 $lly=0.0000 $urx=0.0000 $ury=0.0000 $lvl=2
*|S (VSS!:12 3.2195 0.0000) // $llx=3.2195 $lly=0.0000 $urx=3.2195 $ury=0.0000 $lvl=2
*|S (VSS!:14 2.0400 0.7750) // $llx=2.0400 $lly=0.7750 $urx=2.0400 $ury=0.7750 $lvl=2
*|S (VSS!:15 2.0400 1.1550) // $llx=2.0400 $lly=1.1550 $urx=2.0400 $ury=1.1550 $lvl=2
*|S (VSS!:17 1.1200 0.6050) // $llx=1.1200 $lly=0.6050 $urx=1.1200 $ury=0.6050 $lvl=2
*|S (VSS!:18 1.1200 0.8200) // $llx=1.1200 $lly=0.8200 $urx=1.1200 $ury=0.8200 $lvl=2
*|S (VSS!:20 0.2600 0.6050) // $llx=0.2600 $lly=0.6050 $urx=0.2600 $ury=0.6050 $lvl=2
*|S (VSS!:21 0.2600 0.8200) // $llx=0.2600 $lly=0.8200 $urx=0.2600 $ury=0.8200 $lvl=2
*|S (VSS!:22 3.2200 0.0000) // $llx=3.2200 $lly=0.0000 $urx=3.2200 $ury=0.0000 $lvl=1
*|S (VSS!:23 1.6100 0.0000) // $llx=1.6100 $lly=0.0000 $urx=1.6100 $ury=0.0000 $lvl=1
*|S (VSS!:24 0.0000 0.0000) // $llx=0.0000 $lly=0.0000 $urx=0.0000 $ury=0.0000 $lvl=1
ReG88 VSS!:22 VSS!:23 0.503125 $metal1  $L=1.61 $W=0.400000 $SI_W=0.4 $TYPE=10 $DIR=0 $LLX=1.610000 $LLY=-0.199500 $URX=3.220000 $URY=0.200000 $lvl=1
ReG89 VSS!:23 VSS! 0.026563 $metal1  $L=0.085 $W=0.400000 $SI_W=0.4 $TYPE=10 $DIR=0 $LLX=1.525000 $LLY=-0.199500 $URX=1.610000 $URY=0.200000 $lvl=1
ReG90 VSS! VSS!:24 0.476562 $metal1  $L=1.525 $W=0.400000 $SI_W=0.4 $TYPE=10 $DIR=0 $LLX=0.000000 $LLY=-0.199500 $URX=1.525000 $URY=0.200000 $lvl=1
RfG91 VSS!:1 VSS!:3 28.611765 $li  $L=0.38 $W=0.170000 $SI_W=0.17 $TYPE=10 $DIR=1 $LLX=2.815000 $LLY=0.775000 $URX=2.985000 $URY=1.155000 $lvl=2
RfG92 VSS!:3 VSS!:4 55.328377 $li  $L=0.77475 $W=0.170000 $SI_W=0.17 $TYPE=10 $DIR=1 $LLX=2.815000 $LLY=0.000000 $URX=2.985000 $URY=0.775000 $lvl=2
RfG93 VSS!:4 VSS!:5 44.031998 $li  $L=0.86 $W=0.250000 $SI_W=0.25 $TYPE=10 $DIR=0 $LLX=2.040000 $LLY=-0.124500 $URX=2.900000 $URY=0.125000 $lvl=2