*
*|DSPF 1.5
*
*|DATE "Wed Jan  8 19:42:35 2025"
*|VENDOR "Cadence Design Systems"
*|PROGRAM "Cadence Quantus Extraction"
*|VERSION "22.1.0-p089 Linux 64 bit - (Thu Jan 19 11:47:08 PST 2023)"
*|DESIGN OR4X1_HS
*|DIVIDER /
*|DELIMITER :
*|DeviceFingerDelim "@"
*|BUSBIT []
*|GLOBAL_TEMPERATURE 25
*|OPERATING_TEMPERATURE 25

** *VIA_COVERAGE_CODES
** *index FF FS FP FU SF SS SP SU PF PS PP PU UF US UP UU X_by_Y
** * "FF" stands for Full landing and Full coverage
** *0 0 0 0 0 0 0 0 0 0 0 0 0 0 0 0 0
** *1 0 0 0 0 0 0 0 0 0 0 0 0 0 0 0 1 1x1
** *2 0 0 0 0 0 0 0 0 0 0 0 0 0 0 1 0 1x1
** *3 0 0 0 0 0 0 0 0 0 0 0 0 0 1 0 0 1x1
** *4 0 0 0 0 0 0 0 0 0 0 0 0 1 0 0 0 1x1
** *5 0 0 0 0 0 0 0 0 0 0 0 1 0 0 0 0 1x1
** *6 0 0 0 0 0 0 0 0 0 0 1 0 0 0 0 0 1x1
** *7 0 0 0 0 0 0 0 0 0 1 0 0 0 0 0 0 1x1
** *8 0 0 0 0 0 0 0 0 1 0 0 0 0 0 0 0 1x1
** *9 0 0 0 0 0 0 0 1 0 0 0 0 0 0 0 0 1x1
** *10 0 0 0 0 0 0 1 0 0 0 0 0 0 0 0 0 1x1
** *11 0 0 0 0 0 1 0 0 0 0 0 0 0 0 0 0 1x1
** *12 0 0 0 0 1 0 0 0 0 0 0 0 0 0 0 0 1x1
** *13 0 0 0 1 0 0 0 0 0 0 0 0 0 0 0 0 1x1
** *14 0 0 1 0 0 0 0 0 0 0 0 0 0 0 0 0 1x1
** *15 0 1 0 0 0 0 0 0 0 0 0 0 0 0 0 0 1x1
** *16 1 0 0 0 0 0 0 0 0 0 0 0 0 0 0 0 1x1

** *RESISTOR_TYPES
** *1 SHORTING_ELEMENT
** *2 PRES_NG
** *3 PRES_PG
** *4 PRES_NF
** *5 PRES_PF
** *6 TCN_NDIFF
** *7 TCN_PDIFF
** *8 TCN_NFIELD
** *9 TCN_PFIELD
** *10 QUALITY_EXTRACTED
** *11 GCNLAND
** *12 TCNLAND
** *13 DUMMY
** *14 RSD
** *15 BRIDGE

** *RESISTOR_CURRENT_DIRECTION
** *0 HORIZONTAL
** *1 VERTICAL
** *2 45 DEGREE

** QRC_TECH_DIR /vols/wfo_devel/projects/reference_SKY130/tech/sky130_release_0.0.4/quantus/extraction/typical 
** HIERARCHICAL_SPLIT_PINS_DELIMITER '%'
** caps2d version: 10
*
.SUBCKT  OR4X1_HS A B C D Y
*
*Net Section
*
*|GROUND_NET VSS!
*
*LAYER_MAP
*0 none
*1 metal1
*2 li
*3 poly
*4 diff
*5 licon_diff
*6 mcon
*7 licon
*8 FOX

*|NET n1 2.98098e-16
*|I (Mmp0:d Mmp0 d X 0 1.6895 3.3550) // $llx=1.6895 $lly=3.3550 $urx=1.6895 $ury=3.3550 $lvl=4
*|I (Mmp1:s Mmp1 s X 0 1.4105 3.3550) // $llx=1.4105 $lly=3.3550 $urx=1.4105 $ury=3.3550 $lvl=4
*|S (n1 1.5500 3.3545) // $llx=1.5500 $lly=3.3545 $urx=1.5500 $ury=3.3545 $lvl=2
*|S (n1:3 1.5500 3.1800) // $llx=1.5500 $lly=3.1800 $urx=1.5500 $ury=3.1800 $lvl=2
*|S (n1:4 1.5500 2.7300) // $llx=1.5500 $lly=2.7300 $urx=1.5500 $ury=2.7300 $lvl=2
CJ1 Mmp0:d VSS! 1.27353e-18 $lvl=4
CJ2 n1:3 VSS! 4.21849e-18 $lvl=2
CJ3 n1:4 VSS! 3.28423e-18 $lvl=2
CJ4 n1 VSS! 1.97589e-18 $lvl=2
RfJ161 n1 n1:3 13.138824 $li  $L=0.1745 $W=0.170000 $SI_W=0.17 $TYPE=10 $DIR=1 $LLX=1.465000 $LLY=3.179500 $URX=1.635000 $URY=3.354000 $lvl=2
RfJ162 n1:3 n1:4 33.882351 $li  $L=0.45 $W=0.170000 $SI_W=0.17 $TYPE=10 $DIR=1 $LLX=1.465000 $LLY=2.730000 $URX=1.635000 $URY=3.180000 $lvl=2
Rh_2_J163 Mmp0:d n1:3 15.000000 $licon_diff  $L=0.17 $W=0.17 $A=0.0289 $VC=0 $SAVL=0 $SAVC=0 $SI_A=0.0289 $COVER_DIR=0 $LLX=0.000000 $LLY=0.000000 $URX=0.170000 $URY=0.170000 $lvl=5
RmwJ164 Mmp1:s Mmp0:d 0.001000 $diff $W=1000000 $SI_W=1000000 $TYPE=1 $DIR=0
*
*|NET VDD! 1.70081e-15
*|P (VDD! X 0 1.5250 4.1450) // $llx=1.5250 $lly=4.1450 $urx=1.5250 $ury=4.1450 $lvl=1
*|I (Mmp0:s Mmp0 s X 0 1.8405 3.3550) // $llx=1.8405 $lly=3.3550 $urx=1.8405 $ury=3.3550 $lvl=4
*|I (Mmp0:b Mmp0 b X 0 1.7650 3.3550) // $llx=1.7650 $lly=3.3550 $urx=1.7650 $ury=3.3550 $lvl=8
*|I (Mmp1:b Mmp1 b X 0 1.3350 3.3550) // $llx=1.3350 $lly=3.3550 $urx=1.3350 $ury=3.3550 $lvl=8
*|I (Mmp3:b Mmp3 b X 0 0.4750 3.3550) // $llx=0.4750 $lly=3.3550 $urx=0.4750 $ury=3.3550 $lvl=8
*|I (Mmp4:s Mmp4 s X 0 2.1795 3.0150) // $llx=2.1795 $lly=3.0150 $urx=2.1795 $ury=3.0150 $lvl=4
*|I (Mmp4:b Mmp4 b X 0 2.2550 3.0150) // $llx=2.2550 $lly=3.0150 $urx=2.2550 $ury=3.0150 $lvl=8
*|I (Mmp2:b Mmp2 b X 0 0.9050 3.3550) // $llx=0.9050 $lly=3.3550 $urx=0.9050 $ury=3.3550 $lvl=8
*|S (VDD!:1 2.0400 2.2850) // $llx=2.0400 $lly=2.2850 $urx=2.0400 $ury=2.2850 $lvl=2
*|S (VDD!:3 2.0400 3.0150) // $llx=2.0400 $lly=3.0150 $urx=2.0400 $ury=3.0150 $lvl=2
*|S (VDD!:4 2.0400 4.1400) // $llx=2.0400 $lly=4.1400 $urx=2.0400 $ury=4.1400 $lvl=2
*|S (VDD!:5 1.6100 4.1400) // $llx=1.6100 $lly=4.1400 $urx=1.6100 $ury=4.1400 $lvl=2
*|S (VDD!:6 1.6100 4.1400) // $llx=1.6100 $lly=4.1400 $urx=1.6100 $ury=4.1400 $lvl=4
*|S (VDD!:8 3.2195 4.1400) // $llx=3.2195 $lly=4.1400 $urx=3.2195 $ury=4.1400 $lvl=2
*|S (VDD!:9 3.2200 4.1400) // $llx=3.2200 $lly=4.1400 $urx=3.2200 $ury=4.1400 $lvl=1
*|S (VDD!:10 1.6100 4.1400) // $llx=1.6100 $lly=4.1400 $urx=1.6100 $ury=4.1400 $lvl=1
*|S (VDD!:11 0.0000 4.1400) // $llx=0.0000 $lly=4.1400 $urx=0.0000 $ury=4.1400 $lvl=1
CF1 Mmp0:s VSS! 2.36178e-18 $lvl=4
CF2 VDD!:10 VSS! 1.34034e-17 $lvl=1
CF3 VDD!:9 VSS! 6.79637e-18 $lvl=1
CF4 VDD!:11 VSS! 7.15097e-18 $lvl=1
CF5 VDD!:1 VSS! 6.67611e-18 $lvl=2
CF6 VDD!:8 VSS! 3.21982e-18 $lvl=2
CF7 VDD!:6 VSS! 1.79684e-18 $lvl=4
CF8 VDD!:5 VSS! 4.86872e-18 $lvl=2
CF9 VDD! VSS! 4.49644e-18 $lvl=1
CF10 VDD!:1 Mmp0:d 1.39984e-18 $lvl1=2 $lvl2=4
CF11 Mmp0:s n1:3 5.253e-19 $lvl1=4 $lvl2=2
CF12 VDD!:5 Mmp0:d 2.25742e-18 $lvl1=2 $lvl2=4
CF13 VDD! n1:3 4.07384e-18 $lvl1=1 $lvl2=2
CF14 VDD!:10 n1 1.88918e-18 $lvl1=1 $lvl2=2
CF15 VDD!:1 n1 5.37539e-18 $lvl1=2 $lvl2=2
CF16 VDD!:5 n1:3 3.11577e-18 $lvl1=2 $lvl2=2
CF17 VDD!:5 n1 3.19676e-18 $lvl1=2 $lvl2=2
CF18 VDD!:1 n1:3 2.70061e-17 $lvl1=2 $lvl2=2
CF19 VDD!:10 n1:3 2.15874e-18 $lvl1=1 $lvl2=2
CF20 VDD!:1 n1:4 1.04958e-17 $lvl1=2 $lvl2=2
CF21 VDD!:1 n2:3 9.87328e-19 $lvl1=2 $lvl2=2
CF22 VDD! n2:4 8.44963e-19 $lvl1=1 $lvl2=2
CF23 VDD!:1 n2 5.09145e-19 $lvl1=2 $lvl2=2
CF24 VDD!:5 n2 3.53553e-18 $lvl1=2 $lvl2=2
CF25 VDD!:10 n2 1.86351e-18 $lvl1=1 $lvl2=2
CF26 VDD!:5 n2:3 3.25788e-18 $lvl1=2 $lvl2=2
CF27 VDD! n2:3 1.58802e-18 $lvl1=1 $lvl2=2
CF28 VDD!:10 n2:3 1.7564e-18 $lvl1=1 $lvl2=2
CF29 VDD!:5 Mmp1:d 2.2365e-18 $lvl1=2 $lvl2=4
CF30 VDD! n3:4 1.48696e-18 $lvl1=1 $lvl2=2
CF31 VDD!:10 n3 1.4101e-18 $lvl1=1 $lvl2=2
CF32 VDD!:10 n3:3 1.16858e-18 $lvl1=1 $lvl2=2
CF33 VDD!:5 n3 2.61857e-18 $lvl1=2 $lvl2=2
CF34 VDD!:5 Mmp3:s 1.78061e-18 $lvl1=2 $lvl2=4
CF35 VDD!:5 n3:3 2.52299e-18 $lvl1=2 $lvl2=2
CF36 VDD! n3:3 4.38382e-18 $lvl1=1 $lvl2=2
CF37 VDD!:10 n0:31 8.48268e-18 $lvl1=1 $lvl2=1
CF38 VDD! n0:38 8.47948e-18 $lvl1=1 $lvl2=1
CF39 VDD! n0:29 7.34995e-18 $lvl1=1 $lvl2=1
CF40 VDD!:1 n0:25 7.11173e-18 $lvl1=2 $lvl2=2
CF41 VDD!:11 n0:12 6.78314e-18 $lvl1=1 $lvl2=2
CF42 VDD! n0:32 6.31661e-18 $lvl1=1 $lvl2=1
CF43 VDD!:10 n0:30 6.2871e-18 $lvl1=1 $lvl2=1
CF44 VDD!:1 n0:9 5.91929e-18 $lvl1=2 $lvl2=3
CF45 VDD! n0:9 5.74277e-18 $lvl1=1 $lvl2=3
CF46 VDD!:10 n0:12 5.37301e-18 $lvl1=1 $lvl2=2
CF47 VDD! n0:33 5.29161e-18 $lvl1=1 $lvl2=1
CF48 VDD! n0:36 4.35116e-18 $lvl1=1 $lvl2=1
CF49 VDD! n0:16 4.08652e-18 $lvl1=1 $lvl2=2
CF50 VDD!:5 n0:29 3.90042e-18 $lvl1=2 $lvl2=1
CF51 VDD!:1 n0:32 3.42385e-18 $lvl1=2 $lvl2=1
CF52 VDD!:5 n0:27 3.35501e-18 $lvl1=2 $lvl2=1
CF53 VDD! n0:35 3.31483e-18 $lvl1=1 $lvl2=1
CF54 VDD!:1 n0:30 3.12795e-18 $lvl1=2 $lvl2=1
CF55 VDD!:6 n0:12 2.98981e-18 $lvl1=4 $lvl2=2
CF56 VDD! n0:34 2.76458e-18 $lvl1=1 $lvl2=1
CF57 VDD! n0:25 2.49306e-18 $lvl1=1 $lvl2=2
CF58 VDD!:5 Mmp3:d 2.24868e-18 $lvl1=2 $lvl2=4
CF59 VDD!:11 n0:29 2.01188e-18 $lvl1=1 $lvl2=1
CF60 VDD! n0:15 1.67936e-18 $lvl1=1 $lvl2=2
CF61 VDD!:1 n0:29 1.58612e-18 $lvl1=2 $lvl2=1
CF62 VDD!:5 n0:30 1.06086e-18 $lvl1=2 $lvl2=1
CF63 VDD!:8 n0:8 1.00089e-18 $lvl1=2 $lvl2=3
CF64 Mmp0:s n0:9 9.96795e-19 $lvl1=4 $lvl2=3
CF65 VDD!:5 n0:31 8.70839e-19 $lvl1=2 $lvl2=1
CF66 VDD!:10 n0:32 8.08226e-19 $lvl1=1 $lvl2=1
CF67 VDD!:9 n0:31 5.75162e-19 $lvl1=1 $lvl2=1
CF68 VDD!:11 n0:30 4.66265e-19 $lvl1=1 $lvl2=1
CF69 VDD!:11 n0:15 4.37035e-19 $lvl1=1 $lvl2=2
CF70 VDD!:1 n0:8 2.56887e-16 $lvl1=2 $lvl2=3
CF71 VDD!:1 n0:31 2.58524e-17 $lvl1=2 $lvl2=1
CF72 VDD!:10 n0:27 1.29727e-17 $lvl1=1 $lvl2=1
CF73 VDD! n0:27 2.44947e-17 $lvl1=1 $lvl2=1
CF74 VDD! n0:30 8.60058e-18 $lvl1=1 $lvl2=1
CF75 VDD! n0:31 8.93489e-18 $lvl1=1 $lvl2=1
CF76 VDD!:11 n0:27 1.02016e-17 $lvl1=1 $lvl2=1
CF77 VDD!:5 n0:8 8.77335e-18 $lvl1=2 $lvl2=3
CF78 VDD!:5 n0:12 3.0377e-17 $lvl1=2 $lvl2=2
CF79 VDD!:10 n0:29 2.09619e-17 $lvl1=1 $lvl2=1
CF80 VDD! n0:12 3.68049e-17 $lvl1=1 $lvl2=2
CF81 VDD! VSS!:17 1.48927e-17 $lvl1=1 $lvl2=2
CF82 VDD! VSS!:11 3.59126e-17 $lvl1=1 $lvl2=2
CF83 VDD! VSS!:9 2.23168e-17 $lvl1=1 $lvl2=2
CF84 VDD! VSS!:5 5.54477e-17 $lvl1=1 $lvl2=2
CF85 VDD! VSS!:10 9.58799e-18 $lvl1=1 $lvl2=2
CF86 VDD! VSS!:19 8.8207e-17 $lvl1=1 $lvl2=1
CF87 VDD! VSS!:18 3.32286e-17 $lvl1=1 $lvl2=1
CF88 VDD! VSS!:20 3.49267e-17 $lvl1=1 $lvl2=1
ReF77 VDD!:9 VDD!:10 0.503125 $metal1  $L=1.61 $W=0.400000 $SI_W=0.4 $TYPE=10 $DIR=0 $LLX=1.610000 $LLY=3.940000 $URX=3.220000 $URY=4.340000 $lvl=1
ReF78 VDD!:10 VDD! 0.026563 $metal1  $L=0.085 $W=0.400000 $SI_W=0.4 $TYPE=10 $DIR=0 $LLX=1.525000 $LLY=3.940000 $URX=1.610000 $URY=4.340000 $lvl=1
ReF79 VDD! VDD!:11 0.476562 $metal1  $L=1.525 $W=0.400000 $SI_W=0.4 $TYPE=10 $DIR=0 $LLX=0.000000 $LLY=3.940000 $URX=1.525000 $URY=4.340000 $lvl=1
RfF80 VDD!:1 VDD!:3 54.964703 $li  $L=0.73 $W=0.170000 $SI_W=0.17 $TYPE=10 $DIR=1 $LLX=1.955000 $LLY=2.285000 $URX=2.125000 $URY=3.015000 $lvl=2
RfF81 VDD!:3 VDD!:4 81.706917 $li  $L=1.12525 $W=0.170000 $SI_W=0.17 $TYPE=10 $DIR=1 $LLX=1.955000 $LLY=3.015000 $URX=2.125000 $URY=4.140000 $lvl=2
RfF82 VDD!:4 VDD!:5 22.028799 $li  $L=0.43025 $W=0.250000 $SI_W=0.25 $TYPE=10 $DIR=0 $LLX=1.610000 $LLY=4.015000 $URX=2.040000 $URY=4.265000 $lvl=2
RfF83 VDD!:4 VDD!:8 60.377598 $li  $L=1.17925 $W=0.250000 $SI_W=0.25 $TYPE=10 $DIR=0 $LLX=2.040000 $LLY=4.015000 $URX=3.219000 $URY=4.265000 $lvl=2
Rh_1_F84 VDD!:6 VDD!:5 2.500000 $licon_diff  $A=0.1734 $VC=0 $SAVL=0 $SAVC=0 $SI_A=0.1734 $COVER_DIR=0 $LLX=0.000000 $LLY=0.000000 $URX=-0.173400 $URY=-6.000000 $lvl=5
Rh_2_F85 Mmp0:s VDD!:3 3.750000 $licon_diff  $A=0.1156 $VC=0 $SAVL=0 $SAVC=0 $SI_A=0.1156 $COVER_DIR=0 $LLX=0.000000 $LLY=0.000000 $URX=-0.115600 $URY=-4.000000 $lvl=5
RjF86 VDD!:5 VDD!:10 25.333334 $mcon  $A=0.1734 $VC=0 $SAVL=0 $SAVC=0 $SI_A=0.1734 $COVER_DIR=0 $LLX=0.000000 $LLY=0.000000 $URX=-0.173400 $URY=-6.000000 $lvl=6
RmwF87 Mmp0:b VDD! 0.001000 $FOX $W=1000000 $SI_W=1000000 $TYPE=1 $DIR=0
RmwF88 Mmp1:b VDD! 0.001000 $FOX $W=1000000 $SI_W=1000000 $TYPE=1 $DIR=0
RmwF89 Mmp3:b VDD! 0.001000 $FOX $W=1000000 $SI_W=1000000 $TYPE=1 $DIR=0
RmwF90 Mmp4:s Mmp0:s 0.001000 $diff $W=1000000 $SI_W=1000000 $TYPE=1 $DIR=0
RmwF91 Mmp4:b VDD! 0.001000 $FOX $W=1000000 $SI_W=1000000 $TYPE=1 $DIR=0
RmwF92 Mmp2:b VDD! 0.001000 $FOX $W=1000000 $SI_W=1000000 $TYPE=1 $DIR=0
*
*|NET D 9.80216e-16
*|P (D X 0 0.9350 1.6900) // $llx=0.9350 $lly=1.6900 $urx=0.9350 $ury=1.6900 $lvl=1
*|I (Mmp3:g Mmp3 g X 0 0.4750 3.3550) // $llx=0.4750 $lly=3.3550 $urx=0.4750 $ury=3.3550 $lvl=3
*|I (Mmn3:g Mmn3 g X 0 0.9050 0.6075) // $llx=0.9050 $lly=0.6075 $urx=0.9050 $ury=0.6075 $lvl=3
*|S (D:8 0.4750 3.8950) // $llx=0.4750 $lly=3.8950 $urx=0.4750 $ury=3.8950 $lvl=3
*|S (D:9 0.4750 2.6195) // $llx=0.4750 $lly=2.6195 $urx=0.4750 $ury=2.6195 $lvl=3
*|S (D:10 0.4750 2.4550) // $llx=0.4750 $lly=2.4550 $urx=0.4750 $ury=2.4550 $lvl=3
*|S (D:11 0.9050 0.2450) // $llx=0.9050 $lly=0.2450 $urx=0.9050 $ury=0.2450 $lvl=3
*|S (D:12 0.9000 1.3900) // $llx=0.9000 $lly=1.3900 $urx=0.9000 $ury=1.3900 $lvl=3
*|S (D:13 0.9000 1.5550) // $llx=0.9000 $lly=1.5550 $urx=0.9000 $ury=1.5550 $lvl=3
*|S (D:14 1.0850 1.5550) // $llx=1.0850 $lly=1.5550 $urx=1.0850 $ury=1.5550 $lvl=2
*|S (D:15 0.9200 1.5550) // $llx=0.9200 $lly=1.5550 $urx=0.9200 $ury=1.5550 $lvl=2
*|S (D:16 0.9000 1.5550) // $llx=0.9000 $lly=1.5550 $urx=0.9000 $ury=1.5550 $lvl=2
*|S (D:17 0.6900 1.5550) // $llx=0.6900 $lly=1.5550 $urx=0.6900 $ury=1.5550 $lvl=2
*|S (D:18 0.6900 2.4550) // $llx=0.6900 $lly=2.4550 $urx=0.6900 $ury=2.4550 $lvl=2
*|S (D:19 0.4750 2.4550) // $llx=0.4750 $lly=2.4550 $urx=0.4750 $ury=2.4550 $lvl=2
*|S (D:20 0.3100 2.4550) // $llx=0.3100 $lly=2.4550 $urx=0.3100 $ury=2.4550 $lvl=2
*|S (D:21 0.9200 2.3350) // $llx=0.9200 $lly=2.3350 $urx=0.9200 $ury=2.3350 $lvl=1
*|S (D:22 0.9200 1.5550) // $llx=0.9200 $lly=1.5550 $urx=0.9200 $ury=1.5550 $lvl=1
*|S (D:23 0.9200 1.0950) // $llx=0.9200 $lly=1.0950 $urx=0.9200 $ury=1.0950 $lvl=1
CD1 D:23 VSS! 3.73753e-18 $lvl=1
CD2 D:11 VSS! 7.9271e-19 $lvl=3
CD3 D:8 VSS! 2.39342e-18 $lvl=3
CD4 D:16 VSS! 3.44903e-18 $lvl=2
CD5 D:20 VSS! 3.57837e-18 $lvl=2
CD6 D:17 VSS! 8.06097e-18 $lvl=2
CD7 D:18 VSS! 9.53324e-18 $lvl=2
CD8 D:15 VSS! 2.23168e-18 $lvl=2
CD9 D:10 VSS! 8.28605e-18 $lvl=3
CD10 D:13 VSS! 2.14481e-17 $lvl=3
CD11 D VSS! 7.60108e-18 $lvl=1
CD12 D:18 n3:3 1.46724e-18 $lvl1=2 $lvl2=2
CD13 D n3:4 1.24315e-18 $lvl1=1 $lvl2=2
CD14 D:20 n3:3 1.00901e-18 $lvl1=2 $lvl2=2
CD15 D:8 n3:4 9.77751e-19 $lvl1=3 $lvl2=2
CD16 D:8 n3 8.68771e-19 $lvl1=3 $lvl2=2
CD17 D:10 Mmp3:s 6.39436e-19 $lvl1=3 $lvl2=4
CD18 D:8 n3:3 6.95945e-17 $lvl1=3 $lvl2=2
CD19 D:18 n3:4 1.27159e-17 $lvl1=2 $lvl2=2
CD20 D:10 n3:3 2.25594e-18 $lvl1=3 $lvl2=2
CD21 D:20 n3:4 3.50739e-18 $lvl1=2 $lvl2=2
CD22 D:10 n3:4 3.88681e-18 $lvl1=3 $lvl2=2
CD23 D n0:27 4.02173e-18 $lvl1=1 $lvl2=1
CD24 D:18 n0:30 3.04715e-18 $lvl1=2 $lvl2=1
CD25 D n0:29 2.80949e-18 $lvl1=1 $lvl2=1
CD26 D:20 n0:16 2.79768e-18 $lvl1=2 $lvl2=2
CD27 D:20 n0:27 2.59253e-18 $lvl1=2 $lvl2=1
CD28 D:10 n0:12 2.48931e-18 $lvl1=3 $lvl2=2
CD29 D:23 n0:36 2.15283e-18 $lvl1=1 $lvl2=1
CD30 D:10 n0:16 1.89086e-18 $lvl1=3 $lvl2=2
CD31 D:23 n0:17 1.64096e-18 $lvl1=1 $lvl2=2
CD32 D:20 n0:12 1.43568e-18 $lvl1=2 $lvl2=2
CD33 D:18 n0:27 1.34235e-18 $lvl1=2 $lvl2=1
CD34 D:10 Mmp3:d 1.15135e-18 $lvl1=3 $lvl2=4
CD35 D n0:31 1.11717e-18 $lvl1=1 $lvl2=1
CD36 D:20 n0:15 9.41514e-19 $lvl1=2 $lvl2=2
CD37 D:8 n0:16 9.05322e-19 $lvl1=3 $lvl2=2
CD38 D:20 n0:30 8.03027e-19 $lvl1=2 $lvl2=1
CD39 D:10 n0:27 7.55738e-19 $lvl1=3 $lvl2=1
CD40 D:18 n0:29 7.31867e-19 $lvl1=2 $lvl2=1
CD41 D:13 n0:17 7.16603e-19 $lvl1=3 $lvl2=2
CD42 D:17 n0:17 6.66646e-19 $lvl1=2 $lvl2=2
CD43 D:18 n0:16 6.43545e-19 $lvl1=2 $lvl2=2
CD44 D n0:38 6.20924e-19 $lvl1=1 $lvl2=1
CD45 D n0:32 6.19798e-19 $lvl1=1 $lvl2=1
CD46 D:23 n0:20 6.10169e-19 $lvl1=1 $lvl2=2
CD47 D:10 n0:15 4.57494e-19 $lvl1=3 $lvl2=2
CD48 D:20 n0:29 4.49051e-19 $lvl1=2 $lvl2=1
CD49 D:18 n0:12 4.24911e-19 $lvl1=2 $lvl2=2
CD50 D n0:16 3.86333e-19 $lvl1=1 $lvl2=2
CD51 D n0:12 3.73061e-19 $lvl1=1 $lvl2=2
CD52 D n0:34 3.506e-19 $lvl1=1 $lvl2=1
CD53 D:11 n0:21 3.40562e-19 $lvl1=3 $lvl2=2
CD54 D:18 n0:15 3.37218e-19 $lvl1=2 $lvl2=2
CD55 D n0:36 3.35562e-19 $lvl1=1 $lvl2=1
CD56 D:17 n0:27 3.29268e-19 $lvl1=2 $lvl2=1
CD57 D n0:33 3.28874e-19 $lvl1=1 $lvl2=1
CD58 D:23 n0:34 3.27658e-19 $lvl1=1 $lvl2=1
CD59 D:13 Mmn2:d 3.19293e-19 $lvl1=3 $lvl2=4
CD60 D:8 n0:27 2.89913e-19 $lvl1=3 $lvl2=1
CD61 D:8 n0:29 2.72504e-19 $lvl1=3 $lvl2=1
CD62 D:20 Mmp3:d 2.63771e-19 $lvl1=2 $lvl2=4
CD63 D:23 n0:33 2.58946e-19 $lvl1=1 $lvl2=1
CD64 D:15 n0:17 2.52784e-19 $lvl1=2 $lvl2=2
CD65 D:10 n0:30 2.30328e-19 $lvl1=3 $lvl2=1
CD66 D:8 n0:15 2.22074e-19 $lvl1=3 $lvl2=2
CD67 D n0:15 1.91497e-19 $lvl1=1 $lvl2=2
CD68 D:23 n0:38 7.66326e-18 $lvl1=1 $lvl2=1
CD69 D:8 n0:12 1.35527e-16 $lvl1=3 $lvl2=2
CD70 D:11 n0:17 6.76976e-17 $lvl1=3 $lvl2=2
CD71 D n0:30 2.09546e-17 $lvl1=1 $lvl2=1
CD72 D:11 VSS!:9 1.83581e-18 $lvl1=3 $lvl2=2
CD73 D:23 VSS!:13 1.78014e-18 $lvl1=1 $lvl2=2
CD74 D:23 VSS!:19 1.407e-18 $lvl1=1 $lvl2=1
CD75 D VSS!:19 1.12278e-18 $lvl1=1 $lvl2=1
CD76 D:13 VSS!:13 6.27464e-19 $lvl1=3 $lvl2=2
CD77 D:17 VSS!:13 5.23086e-19 $lvl1=2 $lvl2=2
CD78 D VSS!:20 4.81785e-19 $lvl1=1 $lvl2=1
CD79 D:17 VSS!:17 4.77785e-19 $lvl1=2 $lvl2=2
CD80 D:11 VSS!:17 4.09275e-19 $lvl1=3 $lvl2=2
CD81 D:23 VSS!:20 4.08071e-19 $lvl1=1 $lvl2=1
CD82 D:11 VSS!:13 6.74928e-17 $lvl1=3 $lvl2=2
CD83 D:11 VSS!:5 7.13048e-18 $lvl1=3 $lvl2=2
CD84 D:18 VDD! 4.75279e-18 $lvl1=2 $lvl2=1
CD85 D:13 VDD! 3.74493e-18 $lvl1=3 $lvl2=1
CD86 D:23 VDD! 3.44179e-18 $lvl1=1 $lvl2=1
CD87 D VDD!:10 1.39081e-18 $lvl1=1 $lvl2=1
CD88 D:8 VDD!:5 1.02602e-17 $lvl1=3 $lvl2=2
CD89 D:20 VDD! 6.2263e-18 $lvl1=2 $lvl2=1
CD90 D:17 VDD! 5.0242e-18 $lvl1=2 $lvl2=1
CD91 D VDD! 1.0431e-17 $lvl1=1 $lvl2=1
CD92 D:10 VDD! 2.05174e-17 $lvl1=3 $lvl2=1
ReD46 D:21 D 0.310096 $metal1  $L=0.645 $W=0.260000 $SI_W=0.26 $TYPE=10 $DIR=1 $LLX=0.790000 $LLY=1.690000 $URX=1.050000 $URY=2.335000 $lvl=1
ReD47 D D:22 0.064904 $metal1  $L=0.135 $W=0.260000 $SI_W=0.26 $TYPE=10 $DIR=1 $LLX=0.805000 $LLY=1.555000 $URX=1.065000 $URY=1.690000 $lvl=1
ReD48 D:22 D:23 0.221154 $metal1  $L=0.46 $W=0.260000 $SI_W=0.26 $TYPE=10 $DIR=1 $LLX=0.790000 $LLY=1.095000 $URX=1.050000 $URY=1.555000 $lvl=1
RfD49 D:14 D:15 12.423529 $li  $L=0.165 $W=0.170000 $SI_W=0.17 $TYPE=10 $DIR=0 $LLX=0.920000 $LLY=1.470000 $URX=1.085000 $URY=1.640000 $lvl=2
RfD50 D:15 D:16 1.505882 $li  $L=0.02 $W=1000000 $SI_W=1000000 $TYPE=1,10 $DIR=0 $LLX=0.900000 $LLY=1.470000 $URX=0.920000 $URY=1.640000 $lvl=2
RfD51 D:16 D:17 15.792941 $li  $L=0.20975 $W=0.170000 $SI_W=0.17 $TYPE=10 $DIR=0 $LLX=0.690000 $LLY=1.470000 $URX=0.900000 $URY=1.640000 $lvl=2
RfD52 D:17 D:18 67.764702 $li  $L=0.9 $W=0.170000 $SI_W=0.17 $TYPE=10 $DIR=1 $LLX=0.605000 $LLY=1.555000 $URX=0.775000 $URY=2.455000 $lvl=2
RfD53 D:18 D:19 16.207058 $li  $L=0.21525 $W=0.170000 $SI_W=0.17 $TYPE=10 $DIR=0 $LLX=0.475000 $LLY=2.370000 $URX=0.690000 $URY=2.540000 $lvl=2
RfD54 D:19 D:20 12.423529 $li  $L=0.165 $W=0.170000 $SI_W=0.17 $TYPE=10 $DIR=0 $LLX=0.310000 $LLY=2.370000 $URX=0.475000 $URY=2.540000 $lvl=2
RgD55 D:8 Mmp3:g 173.519989 $poly  $L=0.54 $W=0.150000 $SI_W=0.15 $TYPE=10 $DIR=1 $LLX=0.400000 $LLY=3.355000 $URX=0.550000 $URY=3.895000 $lvl=3
RgD56 Mmp3:g D:9 236.224625 $poly  $L=0.735 $W=0.150000 $SI_W=0.15 $TYPE=10 $DIR=1 $LLX=0.400000 $LLY=2.619500 $URX=0.550000 $URY=3.354500 $lvl=3
RgD57 D:9 D:10 34.134449 $poly  $L=0.1645 $W=0.270000 $SI_W=0.27 $TYPE=10 $DIR=1 $LLX=0.340000 $LLY=2.455000 $URX=0.610000 $URY=2.619500 $lvl=3
RgD58 D:11 Mmn3:g 116.483322 $poly  $L=0.3625 $W=0.150000 $SI_W=0.15 $TYPE=10 $DIR=1 $LLX=0.830000 $LLY=0.245000 $URX=0.980000 $URY=0.607500 $lvl=3
RgD59 Mmn3:g D:12 251.487961 $poly  $L=0.7825 $W=0.150000 $SI_W=0.15 $TYPE=10 $DIR=1 $LLX=0.830000 $LLY=0.607500 $URX=0.980000 $URY=1.390000 $lvl=3
RgD60 D:12 D:13 34.134449 $poly  $L=0.1645 $W=0.270000 $SI_W=0.27 $TYPE=10 $DIR=1 $LLX=0.765000 $LLY=1.390500 $URX=1.035000 $URY=1.555000 $lvl=3
RjD61 D:15 D:22 152.000000 $mcon  $L=0.17 $W=0.17 $A=0.0289 $VC=0 $SAVL=0 $SAVC=0 $SI_A=0.0289 $COVER_DIR=0 $LLX=0.000000 $LLY=0.000000 $URX=0.170000 $URY=0.170000 $lvl=6
RiD62 D:13 D:16 15.000000 $licon  $L=0.17 $W=0.17 $A=0.0289 $VC=0 $SAVL=0 $SAVC=0 $SI_A=0.0289 $COVER_DIR=0 $LLX=0.000000 $LLY=0.000000 $URX=0.170000 $URY=0.170000 $lvl=7
RiD63 D:10 D:19 15.000000 $licon  $L=0.17 $W=0.17 $A=0.0289 $VC=0 $SAVL=0 $SAVC=0 $SI_A=0.0289 $COVER_DIR=0 $LLX=0.000000 $LLY=0.000000 $URX=0.170000 $URY=0.170000 $lvl=7
*
*|NET C 7.24314e-16
*|P (C X 0 0.4750 1.4450) // $llx=0.4750 $lly=1.4450 $urx=0.4750 $ury=1.4450 $lvl=1
*|I (Mmp2:g Mmp2 g X 0 0.9050 3.3550) // $llx=0.9050 $lly=3.3550 $urx=0.9050 $ury=3.3550 $lvl=3
*|I (Mmn2:g Mmn2 g X 0 0.4750 0.6075) // $llx=0.4750 $lly=0.6075 $urx=0.4750 $ury=0.6075 $lvl=3
*|S (C:8 0.9050 3.8950) // $llx=0.9050 $lly=3.8950 $urx=0.9050 $ury=3.8950 $lvl=3
*|S (C:9 0.9050 2.0050) // $llx=0.9050 $lly=2.0050 $urx=0.9050 $ury=2.0050 $lvl=3
*|S (C:10 0.4750 2.0050) // $llx=0.4750 $lly=2.0050 $urx=0.4750 $ury=2.0050 $lvl=3
*|S (C:11 0.4600 1.0950) // $llx=0.4600 $lly=1.0950 $urx=0.4600 $ury=1.0950 $lvl=3
*|S (C:12 0.4600 0.9300) // $llx=0.4600 $lly=0.9300 $urx=0.4600 $ury=0.9300 $lvl=3
*|S (C:13 0.4750 0.2450) // $llx=0.4750 $lly=0.2450 $urx=0.4750 $ury=0.2450 $lvl=3
*|S (C:14 0.4600 1.0950) // $llx=0.4600 $lly=1.0950 $urx=0.4600 $ury=1.0950 $lvl=2
*|S (C:16 0.4600 2.0900) // $llx=0.4600 $lly=2.0900 $urx=0.4600 $ury=2.0900 $lvl=1
*|S (C:17 0.4600 1.0950) // $llx=0.4600 $lly=1.0950 $urx=0.4600 $ury=1.0950 $lvl=1
*|S (C:18 0.4600 0.8500) // $llx=0.4600 $lly=0.8500 $urx=0.4600 $ury=0.8500 $lvl=1
CC1 Mmn2:g VSS! 1.10274e-18 $lvl=3
CC2 C:18 VSS! 6.23242e-18 $lvl=1
CC3 C:8 VSS! 5.86076e-18 $lvl=3
CC4 C:14 VSS! 6.18609e-18 $lvl=2
CC5 C:11 VSS! 1.65107e-17 $lvl=3
CC6 C VSS! 1.06781e-17 $lvl=1
CC7 C:8 n2 1.27705e-18 $lvl1=3 $lvl2=2
CC8 C:8 n2:3 6.80506e-17 $lvl1=3 $lvl2=2
CC9 C:8 n3 1.18508e-18 $lvl1=3 $lvl2=2
CC10 C:8 n3:4 1.01668e-18 $lvl1=3 $lvl2=2
CC11 C:8 n3:3 6.86014e-17 $lvl1=3 $lvl2=2
CC12 C n0:30 3.17746e-18 $lvl1=1 $lvl2=1
CC13 C:18 n0:17 2.65155e-18 $lvl1=1 $lvl2=2
CC14 C:18 n0:20 2.32576e-18 $lvl1=1 $lvl2=2
CC15 C:8 n0:12 2.06703e-18 $lvl1=3 $lvl2=2
CC16 C n0:29 1.67812e-18 $lvl1=1 $lvl2=1
CC17 C:14 n0:38 1.51178e-18 $lvl1=2 $lvl2=1
CC18 C:14 n0:20 1.42215e-18 $lvl1=2 $lvl2=2
CC19 C:18 n0:36 1.35025e-18 $lvl1=1 $lvl2=1
CC20 C:11 Mmn2:d 1.3162e-18 $lvl1=3 $lvl2=4
CC21 C n0:38 1.31375e-18 $lvl1=1 $lvl2=1
CC22 C n0:12 8.51377e-19 $lvl1=1 $lvl2=2
CC23 C n0:16 6.79708e-19 $lvl1=1 $lvl2=2
CC24 C:18 n0:27 6.71423e-19 $lvl1=1 $lvl2=1
CC25 C n0:15 4.88498e-19 $lvl1=1 $lvl2=2
CC26 C:8 n0:29 4.25636e-19 $lvl1=3 $lvl2=1
CC27 C n0:31 3.57842e-19 $lvl1=1 $lvl2=1
CC28 C n0:36 3.5279e-19 $lvl1=1 $lvl2=1
CC29 C:18 n0:30 3.47068e-19 $lvl1=1 $lvl2=1
CC30 C n0:32 2.95792e-19 $lvl1=1 $lvl2=1
CC31 C:18 n0:12 2.64304e-19 $lvl1=1 $lvl2=2
CC32 C n0:34 2.29033e-19 $lvl1=1 $lvl2=1
CC33 C:18 n0:29 2.09855e-19 $lvl1=1 $lvl2=1
CC34 C:8 n0:27 1.96519e-19 $lvl1=3 $lvl2=1
CC35 C:18 n0:33 1.87225e-19 $lvl1=1 $lvl2=1
CC36 Mmn2:g n0:17 6.66059e-17 $lvl1=3 $lvl2=2
CC37 C n0:27 5.36501e-18 $lvl1=1 $lvl2=1
CC38 C:14 n0:17 1.37692e-17 $lvl1=2 $lvl2=2
CC39 C:18 n0:38 2.42664e-17 $lvl1=1 $lvl2=1
CC40 C:11 n0:17 5.91719e-18 $lvl1=3 $lvl2=2
CC41 C:11 Mmn2:s 2.15753e-18 $lvl1=3 $lvl2=4
CC42 C VSS!:19 1.83089e-18 $lvl1=1 $lvl2=1
CC43 C VSS!:20 1.69324e-18 $lvl1=1 $lvl2=1
CC44 C:14 VSS!:13 1.55245e-18 $lvl1=2 $lvl2=2
CC45 C VSS!:17 1.51965e-18 $lvl1=1 $lvl2=2
CC46 Mmn2:g VSS!:5 1.50238e-18 $lvl1=3 $lvl2=2
CC47 C:11 VSS!:13 1.10583e-18 $lvl1=3 $lvl2=2
CC48 C:14 VSS!:20 7.67187e-19 $lvl1=2 $lvl2=1
CC49 C:18 VSS!:9 6.51774e-19 $lvl1=1 $lvl2=2
CC50 C:18 VSS!:13 5.56103e-19 $lvl1=1 $lvl2=2
CC51 C:18 VSS!:10 5.4391e-19 $lvl1=1 $lvl2=2
CC52 Mmn2:g VSS!:13 5.29028e-19 $lvl1=3 $lvl2=2
CC53 C VSS!:10 4.03325e-19 $lvl1=1 $lvl2=2
CC54 C:14 VSS!:9 3.80583e-19 $lvl1=2 $lvl2=2
CC55 C:18 VSS!:5 3.69766e-19 $lvl1=1 $lvl2=2
CC56 C:11 VSS!:17 7.85307e-18 $lvl1=3 $lvl2=2
CC57 Mmn2:g VSS!:17 6.73944e-17 $lvl1=3 $lvl2=2
CC58 C:14 VSS!:17 1.79877e-17 $lvl1=2 $lvl2=2
CC59 C:18 VSS!:20 5.03133e-18 $lvl1=1 $lvl2=1
CC60 C:18 VSS!:19 5.11882e-18 $lvl1=1 $lvl2=1
CC61 C:18 VSS!:17 6.60718e-18 $lvl1=1 $lvl2=2
CC62 Mmn2:g VSS!:9 6.87042e-18 $lvl1=3 $lvl2=2
CC63 C VDD!:10 1.91121e-18 $lvl1=1 $lvl2=1
CC64 C VDD!:11 9.69684e-19 $lvl1=1 $lvl2=1
CC65 C:18 VDD! 1.53535e-17 $lvl1=1 $lvl2=1
CC66 C:8 VDD!:5 1.34534e-17 $lvl1=3 $lvl2=2
CC67 C VDD! 2.60901e-17 $lvl1=1 $lvl2=1
CC68 C:14 VDD! 5.37354e-18 $lvl1=2 $lvl2=1
CC69 C:11 VDD! 4.69227e-18 $lvl1=3 $lvl2=1
CC70 C D:15 2.54493e-18 $lvl1=1 $lvl2=2
CC71 C:11 D:11 2.25297e-18 $lvl1=3 $lvl2=3
CC72 C D:10 1.70475e-18 $lvl1=1 $lvl2=3
CC73 C:14 D:13 1.69346e-18 $lvl1=2 $lvl2=3
CC74 C:18 D:17 1.67385e-18 $lvl1=1 $lvl2=2
CC75 C:8 D:10 1.48912e-18 $lvl1=3 $lvl2=3
CC76 C:14 D:15 1.35323e-18 $lvl1=2 $lvl2=2
CC77 C D:13 6.84024e-19 $lvl1=1 $lvl2=3
CC78 C:8 D:18 6.26583e-19 $lvl1=3 $lvl2=2
CC79 C:18 D:15 5.51088e-19 $lvl1=1 $lvl2=2
CC80 C:14 D 5.41805e-19 $lvl1=2 $lvl2=1
CC81 C:14 D:11 5.04914e-19 $lvl1=2 $lvl2=3
CC82 C:14 D:16 4.70397e-19 $lvl1=2 $lvl2=2
CC83 Mmn2:g D:13 4.07695e-19 $lvl1=3 $lvl2=3
CC84 C:11 D:18 3.6876e-19 $lvl1=3 $lvl2=2
CC85 C:11 D:10 3.64803e-19 $lvl1=3 $lvl2=3
CC86 C:14 D:18 3.11262e-19 $lvl1=2 $lvl2=2
CC87 C:14 D:10 3.03417e-19 $lvl1=2 $lvl2=3
CC88 C:14 D:17 9.79118e-18 $lvl1=2 $lvl2=2
CC89 C D:23 1.09086e-17 $lvl1=1 $lvl2=1
CC90 C:11 D:13 5.14934e-18 $lvl1=3 $lvl2=3
CC91 C:14 D:23 4.46877e-18 $lvl1=2 $lvl2=1
CC92 C D:20 4.91015e-18 $lvl1=1 $lvl2=2
CC93 C D:17 1.45655e-17 $lvl1=1 $lvl2=2
CC94 C D:18 7.76803e-18 $lvl1=1 $lvl2=2
CC95 C:18 D:23 3.05013e-17 $lvl1=1 $lvl2=1
CC96 C D 7.33928e-17 $lvl1=1 $lvl2=1
CC97 C:18 D 3.78884e-18 $lvl1=1 $lvl2=1
CC98 C:11 D:17 4.02631e-18 $lvl1=3 $lvl2=2
ReC34 C:16 C 0.310096 $metal1  $L=0.645 $W=0.260000 $SI_W=0.26 $TYPE=10 $DIR=1 $LLX=0.330000 $LLY=1.445000 $URX=0.590000 $URY=2.090000 $lvl=1
ReC35 C C:17 0.168269 $metal1  $L=0.35 $W=0.260000 $SI_W=0.26 $TYPE=10 $DIR=1 $LLX=0.330000 $LLY=1.095000 $URX=0.590000 $URY=1.445000 $lvl=1
ReC36 C:17 C:18 0.117788 $metal1  $L=0.245 $W=0.260000 $SI_W=0.26 $TYPE=10 $DIR=1 $LLX=0.330000 $LLY=0.850000 $URX=0.590000 $URY=1.095000 $lvl=1
RgC37 C:8 Mmp2:g 173.519989 $poly  $L=0.54 $W=0.150000 $SI_W=0.15 $TYPE=10 $DIR=1 $LLX=0.830000 $LLY=3.355000 $URX=0.980000 $URY=3.895000 $lvl=3
RgC38 Mmp2:g C:9 433.719666 $poly  $L=1.34975 $W=0.150000 $SI_W=0.15 $TYPE=10 $DIR=1 $LLX=0.830000 $LLY=2.005000 $URX=0.980000 $URY=3.355000 $lvl=3
RgC39 C:9 C:10 138.173340 $poly  $L=0.43 $W=0.150000 $SI_W=0.15 $TYPE=10 $DIR=0 $LLX=0.475000 $LLY=1.930000 $URX=0.905000 $URY=2.080000 $lvl=3
RgC40 C:10 C:11 273.652771 $poly  $L=0.91025 $W=0.150000 $SI_W=0.15 $TYPE=10 $DIR=1 $LLX=0.400000 $LLY=1.095000 $URX=0.550000 $URY=2.005000 $lvl=3
RgC41 C:11 C:12 34.134449 $poly  $L=0.1645 $W=0.270000 $SI_W=0.27 $TYPE=10 $DIR=1 $LLX=0.325000 $LLY=0.930500 $URX=0.595000 $URY=1.095000 $lvl=3
RgC42 C:12 Mmn2:g 103.674629 $poly  $L=0.3225 $W=0.150000 $SI_W=0.15 $TYPE=10 $DIR=1 $LLX=0.400000 $LLY=0.607500 $URX=0.550000 $URY=0.930000 $lvl=3
RgC43 Mmn2:g C:13 116.483322 $poly  $L=0.3625 $W=0.150000 $SI_W=0.15 $TYPE=10 $DIR=1 $LLX=0.400000 $LLY=0.245000 $URX=0.550000 $URY=0.607500 $lvl=3
RjC44 C:14 C:17 152.000000 $mcon  $L=0.17 $W=0.17 $A=0.0289 $VC=0 $SAVL=0 $SAVC=0 $SI_A=0.0289 $COVER_DIR=0 $LLX=0.000000 $LLY=0.000000 $URX=0.170000 $URY=0.170000 $lvl=6
RiC45 C:11 C:14 15.000000 $licon  $L=0.17 $W=0.17 $A=0.0289 $VC=0 $SAVL=0 $SAVC=0 $SI_A=0.0289 $COVER_DIR=0 $LLX=0.000000 $LLY=0.000000 $URX=0.170000 $URY=0.170000 $lvl=7
*
*|NET n0 3.00237e-15
*|I (Mmp3:d Mmp3 d X 0 0.3995 3.3550) // $llx=0.3995 $lly=3.3550 $urx=0.3995 $ury=3.3550 $lvl=4
*|I (Mmp4:g Mmp4 g X 0 2.2550 3.0150) // $llx=2.2550 $lly=3.0150 $urx=2.2550 $ury=3.0150 $lvl=3
*|I (Mmn4:g Mmn4 g X 0 2.2550 0.7750) // $llx=2.2550 $lly=0.7750 $urx=2.2550 $ury=0.7750 $lvl=3
*|I (Mmn0:d Mmn0 d X 0 1.4105 0.6075) // $llx=1.4105 $lly=0.6075 $urx=1.4105 $ury=0.6075 $lvl=4
*|I (Mmn2:d Mmn2 d X 0 0.5505 0.6075) // $llx=0.5505 $lly=0.6075 $urx=0.5505 $ury=0.6075 $lvl=4
*|I (Mmn3:d Mmn3 d X 0 0.8295 0.6075) // $llx=0.8295 $lly=0.6075 $urx=0.8295 $ury=0.6075 $lvl=4
*|I (Mmn1:d Mmn1 d X 0 1.6895 0.6075) // $llx=1.6895 $lly=0.6075 $urx=1.6895 $ury=0.6075 $lvl=4
*|S (n0 2.2550 0.7750) // $llx=2.2550 $lly=0.7750 $urx=2.2550 $ury=0.7750 $lvl=3
*|S (n0:8 2.2550 3.8950) // $llx=2.2550 $lly=3.8950 $urx=2.2550 $ury=3.8950 $lvl=3
*|S (n0:9 2.2550 1.8900) // $llx=2.2550 $lly=1.8900 $urx=2.2550 $ury=1.8900 $lvl=3
*|S (n0:10 2.2550 1.7250) // $llx=2.2550 $lly=1.7250 $urx=2.2550 $ury=1.7250 $lvl=3
*|S (n0:11 2.2550 0.2450) // $llx=2.2550 $lly=0.2450 $urx=2.2550 $ury=0.2450 $lvl=3
*|S (n0:12 0.2600 3.7450) // $llx=0.2600 $lly=3.7450 $urx=0.2600 $ury=3.7450 $lvl=2
*|S (n0:14 0.2600 3.3550) // $llx=0.2600 $lly=3.3550 $urx=0.2600 $ury=3.3550 $lvl=2
*|S (n0:15 0.2600 3.1900) // $llx=0.2600 $lly=3.1900 $urx=0.2600 $ury=3.1900 $lvl=2
*|S (n0:16 0.2600 2.9650) // $llx=0.2600 $lly=2.9650 $urx=0.2600 $ury=2.9650 $lvl=2
*|S (n0:17 0.6900 0.8200) // $llx=0.6900 $lly=0.8200 $urx=0.6900 $ury=0.8200 $lvl=2
*|S (n0:19 0.6900 0.6050) // $llx=0.6900 $lly=0.6050 $urx=0.6900 $ury=0.6050 $lvl=2
*|S (n0:20 0.6900 0.4950) // $llx=0.6900 $lly=0.4950 $urx=0.6900 $ury=0.4950 $lvl=2
*|S (n0:21 1.5500 0.8200) // $llx=1.5500 $lly=0.8200 $urx=1.5500 $ury=0.8200 $lvl=2
*|S (n0:23 1.5500 0.6050) // $llx=1.5500 $lly=0.6050 $urx=1.5500 $ury=0.6050 $lvl=2
*|S (n0:24 1.5500 0.4950) // $llx=1.5500 $lly=0.4950 $urx=1.5500 $ury=0.4950 $lvl=2
*|S (n0:25 2.2550 1.8900) // $llx=2.2550 $lly=1.8900 $urx=2.2550 $ury=1.8900 $lvl=2
*|S (n0:27 0.1150 3.1900) // $llx=0.1150 $lly=3.1900 $urx=0.1150 $ury=3.1900 $lvl=1
*|S (n0:28 0.2600 3.1900) // $llx=0.2600 $lly=3.1900 $urx=0.2600 $ury=3.1900 $lvl=1
*|S (n0:29 1.0850 3.1900) // $llx=1.0850 $lly=3.1900 $urx=1.0850 $ury=3.1900 $lvl=1
*|S (n0:30 1.0850 2.7900) // $llx=1.0850 $lly=2.7900 $urx=1.0850 $ury=2.7900 $lvl=1
*|S (n0:31 2.2550 2.7900) // $llx=2.2550 $lly=2.7900 $urx=2.2550 $ury=2.7900 $lvl=1
*|S (n0:32 2.2550 1.8900) // $llx=2.2550 $lly=1.8900 $urx=2.2550 $ury=1.8900 $lvl=1
*|S (n0:33 2.2550 0.9900) // $llx=2.2550 $lly=0.9900 $urx=2.2550 $ury=0.9900 $lvl=1
*|S (n0:34 1.9350 0.9900) // $llx=1.9350 $lly=0.9900 $urx=1.9350 $ury=0.9900 $lvl=1
*|S (n0:35 1.9350 0.4950) // $llx=1.9350 $lly=0.4950 $urx=1.9350 $ury=0.4950 $lvl=1
*|S (n0:36 1.5500 0.4950) // $llx=1.5500 $lly=0.4950 $urx=1.5500 $ury=0.4950 $lvl=1
*|S (n0:37 0.6900 0.4950) // $llx=0.6900 $lly=0.4950 $urx=0.6900 $ury=0.4950 $lvl=1
*|S (n0:38 0.5450 0.4950) // $llx=0.5450 $lly=0.4950 $urx=0.5450 $ury=0.4950 $lvl=1
CH1 Mmn2:d VSS! 7.87747e-19 $lvl=4
CH2 Mmn0:d VSS! 6.08118e-19 $lvl=4
CH3 Mmp3:d VSS! 1.62596e-18 $lvl=4
CH4 n0:36 VSS! 2.37037e-18 $lvl=1
CH5 n0:32 VSS! 3.28067e-18 $lvl=1
CH6 n0:27 VSS! 4.55331e-18 $lvl=1
CH7 n0:38 VSS! 2.75338e-18 $lvl=1
CH8 n0:29 VSS! 3.29277e-18 $lvl=1
CH9 n0:30 VSS! 3.78459e-18 $lvl=1
CH10 n0:31 VSS! 3.14288e-18 $lvl=1
CH11 n0:33 VSS! 2.55581e-18 $lvl=1
CH12 n0:34 VSS! 1.82173e-18 $lvl=1
CH13 n0:35 VSS! 2.13701e-18 $lvl=1
CH14 n0:8 VSS! 1.15179e-18 $lvl=3
CH15 n0:25 VSS! 4.37489e-18 $lvl=2
CH16 n0:21 VSS! 2.90579e-18 $lvl=2
CH17 n0:17 VSS! 3.56102e-18 $lvl=2
CH18 n0:12 VSS! 2.42197e-18 $lvl=2
CH19 n0:16 VSS! 2.25708e-18 $lvl=2
CH20 n0:15 VSS! 1.22929e-18 $lvl=2
CH21 n0:20 VSS! 1.25946e-18 $lvl=2
CH22 n0:24 VSS! 1.08171e-18 $lvl=2
CH23 n0:9 VSS! 1.6638e-17 $lvl=3
CH24 n0 VSS! 1.43943e-18 $lvl=3
CH25 n0:29 n1 1.45539e-18 $lvl1=1 $lvl2=2
CH26 n0:30 n1 5.97862e-19 $lvl1=1 $lvl2=2
CH27 n0:29 n1:4 5.34667e-19 $lvl1=1 $lvl2=2
CH28 n0:30 n1:3 5.59439e-18 $lvl1=1 $lvl2=2
CH29 n0:31 n1:4 2.76733e-18 $lvl1=1 $lvl2=2
CH30 n0:31 n1:3 3.19495e-18 $lvl1=1 $lvl2=2
CH31 n0:29 n1:3 3.23358e-18 $lvl1=1 $lvl2=2
CH32 n0:30 n1:4 6.0251e-18 $lvl1=1 $lvl2=2
CH33 n0:27 n2:3 7.58697e-19 $lvl1=1 $lvl2=2
CH34 n0:12 n2:3 5.94526e-19 $lvl1=2 $lvl2=2
CH35 n0:27 n2:4 3.39056e-19 $lvl1=1 $lvl2=2