*
*|DSPF 1.5
*
*|DATE "Wed Jan  8 19:04:58 2025"
*|VENDOR "Cadence Design Systems"
*|PROGRAM "Cadence Quantus Extraction"
*|VERSION "22.1.0-p089 Linux 64 bit - (Thu Jan 19 11:47:08 PST 2023)"
*|DESIGN SDFFSX4_HS
*|DIVIDER /
*|DELIMITER :
*|DeviceFingerDelim "@"
*|BUSBIT []
*|GLOBAL_TEMPERATURE 25
*|OPERATING_TEMPERATURE 25

** *VIA_COVERAGE_CODES
** *index FF FS FP FU SF SS SP SU PF PS PP PU UF US UP UU X_by_Y
** * "FF" stands for Full landing and Full coverage
** *0 0 0 0 0 0 0 0 0 0 0 0 0 0 0 0 0
** *1 0 0 0 0 0 0 0 0 0 0 0 0 0 0 0 1 1x1
** *2 0 0 0 0 0 0 0 0 0 0 0 0 0 0 1 0 1x1
** *3 0 0 0 0 0 0 0 0 0 0 0 0 0 1 0 0 1x1
** *4 0 0 0 0 0 0 0 0 0 0 0 0 1 0 0 0 1x1
** *5 0 0 0 0 0 0 0 0 0 0 0 1 0 0 0 0 1x1
** *6 0 0 0 0 0 0 0 0 0 0 1 0 0 0 0 0 1x1
** *7 0 0 0 0 0 0 0 0 0 1 0 0 0 0 0 0 1x1
** *8 0 0 0 0 0 0 0 0 1 0 0 0 0 0 0 0 1x1
** *9 0 0 0 0 0 0 0 1 0 0 0 0 0 0 0 0 1x1
** *10 0 0 0 0 0 0 1 0 0 0 0 0 0 0 0 0 1x1
** *11 0 0 0 0 0 1 0 0 0 0 0 0 0 0 0 0 1x1
** *12 0 0 0 0 1 0 0 0 0 0 0 0 0 0 0 0 1x1
** *13 0 0 0 1 0 0 0 0 0 0 0 0 0 0 0 0 1x1
** *14 0 0 1 0 0 0 0 0 0 0 0 0 0 0 0 0 1x1
** *15 0 1 0 0 0 0 0 0 0 0 0 0 0 0 0 0 1x1
** *16 1 0 0 0 0 0 0 0 0 0 0 0 0 0 0 0 1x1

** *RESISTOR_TYPES
** *1 SHORTING_ELEMENT
** *2 PRES_NG
** *3 PRES_PG
** *4 PRES_NF
** *5 PRES_PF
** *6 TCN_NDIFF
** *7 TCN_PDIFF
** *8 TCN_NFIELD
** *9 TCN_PFIELD
** *10 QUALITY_EXTRACTED
** *11 GCNLAND
** *12 TCNLAND
** *13 DUMMY
** *14 RSD
** *15 BRIDGE

** *RESISTOR_CURRENT_DIRECTION
** *0 HORIZONTAL
** *1 VERTICAL
** *2 45 DEGREE

** QRC_TECH_DIR /vols/wfo_devel/projects/reference_SKY130/tech/sky130_release_0.0.4/quantus/extraction/typical 
** HIERARCHICAL_SPLIT_PINS_DELIMITER '%'
** caps2d version: 10
*
.SUBCKT  SDFFSX4_HS CK D Q QN SE SI SN
*
*Net Section
*
*|GROUND_NET VSS!
*
*LAYER_MAP
*0 none
*1 metal1
*2 li
*3 poly
*4 diff
*5 licon_diff
*6 mcon
*7 licon
*8 FOX

*|NET net405 1.06401e-15
*|I (Mmp52:s Mmp52 s X 0 7.1805 3.3550) // $llx=7.1805 $lly=3.3550 $urx=7.1805 $ury=3.3550 $lvl=4
*|I (Mmp50:d Mmp50 d X 0 8.0405 3.3550) // $llx=8.0405 $lly=3.3550 $urx=8.0405 $ury=3.3550 $lvl=4
*|I (Mmp51:d Mmp51 d X 0 7.4595 3.3550) // $llx=7.4595 $lly=3.3550 $urx=7.4595 $ury=3.3550 $lvl=4
*|S (net405 7.3200 3.7450) // $llx=7.3200 $lly=3.7450 $urx=7.3200 $ury=3.7450 $lvl=2
*|S (net405:3 7.3200 3.3550) // $llx=7.3200 $lly=3.3550 $urx=7.3200 $ury=3.3550 $lvl=2
*|S (net405:4 7.3200 2.8950) // $llx=7.3200 $lly=2.8950 $urx=7.3200 $ury=2.8950 $lvl=2
*|S (net405:5 7.3200 2.7300) // $llx=7.3200 $lly=2.7300 $urx=7.3200 $ury=2.7300 $lvl=2
*|S (net405:6 8.1800 3.7450) // $llx=8.1800 $lly=3.7450 $urx=8.1800 $ury=3.7450 $lvl=2
*|S (net405:8 8.1800 3.3550) // $llx=8.1800 $lly=3.3550 $urx=8.1800 $ury=3.3550 $lvl=2
*|S (net405:9 8.1800 2.8950) // $llx=8.1800 $lly=2.8950 $urx=8.1800 $ury=2.8950 $lvl=2
*|S (net405:10 8.1800 2.7300) // $llx=8.1800 $lly=2.7300 $urx=8.1800 $ury=2.7300 $lvl=2
*|S (net405:11 8.3250 2.8950) // $llx=8.3250 $lly=2.8950 $urx=8.3250 $ury=2.8950 $lvl=1
*|S (net405:12 8.1800 2.8950) // $llx=8.1800 $lly=2.8950 $urx=8.1800 $ury=2.8950 $lvl=1
*|S (net405:13 7.3200 2.8950) // $llx=7.3200 $lly=2.8950 $urx=7.3200 $ury=2.8950 $lvl=1
*|S (net405:14 7.1750 2.8950) // $llx=7.1750 $lly=2.8950 $urx=7.1750 $ury=2.8950 $lvl=1
CU1 Mmp50:d VSS! 8.79212e-19 $lvl=4
CU2 Mmp52:s VSS! 7.11926e-19 $lvl=4
CU3 net405:12 VSS! 1.2083e-17 $lvl=1
CU4 net405:14 VSS! 1.05295e-17 $lvl=1
CU5 net405:6 VSS! 3.72121e-18 $lvl=2
CU6 net405:5 VSS! 2.62331e-18 $lvl=2
CU7 net405:4 VSS! 1.63651e-18 $lvl=2
CU8 net405:9 VSS! 7.63248e-18 $lvl=2
CU9 net405 VSS! 6.05047e-18 $lvl=2
ReU709 net405:11 net405:12 0.078804 $metal1  $L=0.145 $W=0.230000 $SI_W=0.23 $TYPE=10 $DIR=0 $LLX=8.180000 $LLY=2.780000 $URX=8.325000 $URY=3.010000 $lvl=1
ReU710 net405:12 net405:13 0.467391 $metal1  $L=0.86 $W=0.230000 $SI_W=0.23 $TYPE=10 $DIR=0 $LLX=7.320000 $LLY=2.780000 $URX=8.180000 $URY=3.010000 $lvl=1
ReU711 net405:13 net405:14 0.078804 $metal1  $L=0.145 $W=0.230000 $SI_W=0.23 $TYPE=10 $DIR=0 $LLX=7.175000 $LLY=2.780000 $URX=7.320000 $URY=3.010000 $lvl=1
RfU712 net405 net405:3 29.364706 $li  $L=0.39 $W=0.170000 $SI_W=0.17 $TYPE=10 $DIR=1 $LLX=7.235000 $LLY=3.355000 $URX=7.405000 $URY=3.745000 $lvl=2
RfU713 net405:3 net405:4 34.635296 $li  $L=0.46 $W=0.170000 $SI_W=0.17 $TYPE=10 $DIR=1 $LLX=7.235000 $LLY=2.895000 $URX=7.405000 $URY=3.355000 $lvl=2
RfU714 net405:4 net405:5 12.423529 $li  $L=0.165 $W=0.170000 $SI_W=0.17 $TYPE=10 $DIR=1 $LLX=7.235000 $LLY=2.730000 $URX=7.405000 $URY=2.895000 $lvl=2
RfU715 net405:6 net405:8 29.364706 $li  $L=0.39 $W=0.170000 $SI_W=0.17 $TYPE=10 $DIR=1 $LLX=8.095000 $LLY=3.355000 $URX=8.265000 $URY=3.745000 $lvl=2
RfU716 net405:8 net405:9 34.635296 $li  $L=0.46 $W=0.170000 $SI_W=0.17 $TYPE=10 $DIR=1 $LLX=8.095000 $LLY=2.895000 $URX=8.265000 $URY=3.355000 $lvl=2
RfU717 net405:9 net405:10 12.423529 $li  $L=0.165 $W=0.170000 $SI_W=0.17 $TYPE=10 $DIR=1 $LLX=8.095000 $LLY=2.730000 $URX=8.265000 $URY=2.895000 $lvl=2
Rh_2_U718 Mmp52:s net405:3 7.500000 $licon_diff  $A=0.0578 $VC=0 $SAVL=0 $SAVC=0 $SI_A=0.0578 $COVER_DIR=0 $LLX=0.000000 $LLY=0.000000 $URX=-0.057800 $URY=-2.000000 $lvl=5
Rh_2_U719 Mmp50:d net405:8 7.500000 $licon_diff  $A=0.0578 $VC=0 $SAVL=0 $SAVC=0 $SI_A=0.0578 $COVER_DIR=0 $LLX=0.000000 $LLY=0.000000 $URX=-0.057800 $URY=-2.000000 $lvl=5
RjU720 net405:9 net405:12 152.000000 $mcon  $L=0.17 $W=0.17 $A=0.0289 $VC=0 $SAVL=0 $SAVC=0 $SI_A=0.0289 $COVER_DIR=0 $LLX=0.000000 $LLY=0.000000 $URX=0.170000 $URY=0.170000 $lvl=6
RjU721 net405:4 net405:13 152.000000 $mcon  $L=0.17 $W=0.17 $A=0.0289 $VC=0 $SAVL=0 $SAVC=0 $SI_A=0.0289 $COVER_DIR=0 $LLX=0.000000 $LLY=0.000000 $URX=0.170000 $URY=0.170000 $lvl=6
RmwU722 Mmp51:d Mmp52:s 0.001000 $diff $W=1000000 $SI_W=1000000 $TYPE=1 $DIR=0
*
*|NET CKb 3.18527e-15
*|I (Mmp36:g Mmp36 g X 0 4.0050 3.3550) // $llx=4.0050 $lly=3.3550 $urx=4.0050 $ury=3.3550 $lvl=3
*|I (Mmp21:g Mmp21 g X 0 4.8650 3.3550) // $llx=4.8650 $lly=3.3550 $urx=4.8650 $ury=3.3550 $lvl=3
*|I (Mmp20:d Mmp20 d X 0 2.7005 3.3550) // $llx=2.7005 $lly=3.3550 $urx=2.7005 $ury=3.3550 $lvl=4
*|I (Mmp40:g Mmp40 g X 0 6.6750 3.3550) // $llx=6.6750 $lly=3.3550 $urx=6.6750 $ury=3.3550 $lvl=3
*|I (Mmn25:g Mmn25 g X 0 3.5750 0.6075) // $llx=3.5750 $lly=0.6075 $urx=3.5750 $ury=0.6075 $lvl=3
*|I (Mmn52:g Mmn52 g X 0 7.1050 0.6075) // $llx=7.1050 $lly=0.6075 $urx=7.1050 $ury=0.6075 $lvl=3
*|I (Mmn21:g Mmn21 g X 0 4.8650 0.6075) // $llx=4.8650 $lly=0.6075 $urx=4.8650 $ury=0.6075 $lvl=3
*|I (Mmn20:d Mmn20 d X 0 2.7005 0.6075) // $llx=2.7005 $lly=0.6075 $urx=2.7005 $ury=0.6075 $lvl=4
*|S (CKb 3.5750 0.6075) // $llx=3.5750 $lly=0.6075 $urx=3.5750 $ury=0.6075 $lvl=3
*|S (CKb:22 4.0050 3.8950) // $llx=4.0050 $lly=3.8950 $urx=4.0050 $ury=3.8950 $lvl=3
*|S (CKb:23 4.0050 1.7750) // $llx=4.0050 $lly=1.7750 $urx=4.0050 $ury=1.7750 $lvl=3
*|S (CKb:24 3.7900 1.7750) // $llx=3.7900 $lly=1.7750 $urx=3.7900 $ury=1.7750 $lvl=3
*|S (CKb:25 3.5750 1.7750) // $llx=3.5750 $lly=1.7750 $urx=3.5750 $ury=1.7750 $lvl=3
*|S (CKb:26 3.5750 0.2450) // $llx=3.5750 $lly=0.2450 $urx=3.5750 $ury=0.2450 $lvl=3
*|S (CKb:27 4.8650 3.8950) // $llx=4.8650 $lly=3.8950 $urx=4.8650 $ury=3.8950 $lvl=3
*|S (CKb:28 4.9250 1.9395) // $llx=4.9250 $lly=1.9395 $urx=4.9250 $ury=1.9395 $lvl=3
*|S (CKb:29 4.9250 1.7750) // $llx=4.9250 $lly=1.7750 $urx=4.9250 $ury=1.7750 $lvl=3
*|S (CKb:30 4.9250 1.6100) // $llx=4.9250 $lly=1.6100 $urx=4.9250 $ury=1.6100 $lvl=3
*|S (CKb:31 4.8650 0.2450) // $llx=4.8650 $lly=0.2450 $urx=4.8650 $ury=0.2450 $lvl=3
*|S (CKb:32 6.6750 3.8950) // $llx=6.6750 $lly=3.8950 $urx=6.6750 $ury=3.8950 $lvl=3
*|S (CKb:33 6.6750 1.7750) // $llx=6.6750 $lly=1.7750 $urx=6.6750 $ury=1.7750 $lvl=3
*|S (CKb:34 6.8900 1.7750) // $llx=6.8900 $lly=1.7750 $urx=6.8900 $ury=1.7750 $lvl=3
*|S (CKb:35 7.1050 1.7750) // $llx=7.1050 $lly=1.7750 $urx=7.1050 $ury=1.7750 $lvl=3
*|S (CKb:36 7.1050 0.2450) // $llx=7.1050 $lly=0.2450 $urx=7.1050 $ury=0.2450 $lvl=3
*|S (CKb:37 2.8400 3.7450) // $llx=2.8400 $lly=3.7450 $urx=2.8400 $ury=3.7450 $lvl=2
*|S (CKb:39 2.8400 3.3550) // $llx=2.8400 $lly=3.3550 $urx=2.8400 $ury=3.3550 $lvl=2
*|S (CKb:40 2.8400 2.8950) // $llx=2.8400 $lly=2.8950 $urx=2.8400 $ury=2.8950 $lvl=2
*|S (CKb:41 2.8400 2.7300) // $llx=2.8400 $lly=2.7300 $urx=2.8400 $ury=2.7300 $lvl=2
*|S (CKb:42 2.8400 0.8200) // $llx=2.8400 $lly=0.8200 $urx=2.8400 $ury=0.8200 $lvl=2
*|S (CKb:43 2.8400 0.6550) // $llx=2.8400 $lly=0.6550 $urx=2.8400 $ury=0.6550 $lvl=2
*|S (CKb:45 2.8400 0.6050) // $llx=2.8400 $lly=0.6050 $urx=2.8400 $ury=0.6050 $lvl=2
*|S (CKb:46 2.8400 0.3950) // $llx=2.8400 $lly=0.3950 $urx=2.8400 $ury=0.3950 $lvl=2
*|S (CKb:47 7.0550 1.7750) // $llx=7.0550 $lly=1.7750 $urx=7.0550 $ury=1.7750 $lvl=2
*|S (CKb:48 6.8900 1.7750) // $llx=6.8900 $lly=1.7750 $urx=6.8900 $ury=1.7750 $lvl=2
*|S (CKb:49 4.9250 1.7750) // $llx=4.9250 $lly=1.7750 $urx=4.9250 $ury=1.7750 $lvl=2
*|S (CKb:50 3.7900 1.7750) // $llx=3.7900 $lly=1.7750 $urx=3.7900 $ury=1.7750 $lvl=2
*|S (CKb:51 2.8400 1.7750) // $llx=2.8400 $lly=1.7750 $urx=2.8400 $ury=1.7750 $lvl=2
*|S (CKb:52 2.6750 1.7750) // $llx=2.6750 $lly=1.7750 $urx=2.6750 $ury=1.7750 $lvl=2
*|S (CKb:53 2.8400 3.0400) // $llx=2.8400 $lly=3.0400 $urx=2.8400 $ury=3.0400 $lvl=1
*|S (CKb:54 2.8400 2.8950) // $llx=2.8400 $lly=2.8950 $urx=2.8400 $ury=2.8950 $lvl=1
*|S (CKb:55 2.8400 1.7750) // $llx=2.8400 $lly=1.7750 $urx=2.8400 $ury=1.7750 $lvl=1
*|S (CKb:56 2.8400 0.6550) // $llx=2.8400 $lly=0.6550 $urx=2.8400 $ury=0.6550 $lvl=1
*|S (CKb:57 2.8400 0.5100) // $llx=2.8400 $lly=0.5100 $urx=2.8400 $ury=0.5100 $lvl=1
CL1 Mmn20:d VSS! 2.50228e-18 $lvl=4
CL2 Mmn21:g VSS! 2.47711e-18 $lvl=3
CL3 Mmp20:d VSS! 2.4799e-18 $lvl=4
CL4 Mmp36:g VSS! 4.05453e-18 $lvl=3
CL5 CKb:55 VSS! 1.10746e-17 $lvl=1
CL6 CKb:53 VSS! 9.04772e-18 $lvl=1
CL7 CKb:57 VSS! 9.83144e-18 $lvl=1
CL8 CKb:32 VSS! 5.51725e-18 $lvl=3
CL9 CKb:36 VSS! 4.41319e-18 $lvl=3
CL10 CKb:27 VSS! 5.16882e-18 $lvl=3
CL11 CKb:50 VSS! 1.14934e-17 $lvl=2
CL12 CKb:49 VSS! 1.4129e-17 $lvl=2
CL13 CKb:47 VSS! 2.51709e-17 $lvl=2
CL14 CKb:52 VSS! 1.32614e-17 $lvl=2
CL15 CKb:42 VSS! 1.18599e-17 $lvl=2
CL16 CKb:46 VSS! 9.85513e-19 $lvl=2
CL17 CKb:37 VSS! 5.61787e-18 $lvl=2
CL18 CKb:41 VSS! 4.63258e-18 $lvl=2
CL19 CKb:43 VSS! 2.22603e-18 $lvl=2
CL20 CKb:51 VSS! 3.2164e-18 $lvl=2
CL21 CKb:40 VSS! 3.4582e-18 $lvl=2
CL22 CKb:24 VSS! 2.34713e-17 $lvl=3
CL23 CKb:29 VSS! 2.7353e-17 $lvl=3
CL24 CKb:34 VSS! 2.69327e-17 $lvl=3
CL25 CKb VSS! 3.403e-18 $lvl=3
CL26 Mmp36:g net417:4 8.19277e-19 $lvl1=3 $lvl2=2
CL27 Mmp36:g net417 7.08769e-19 $lvl1=3 $lvl2=2
CL28 CKb:27 net417:3 3.31976e-19 $lvl1=3 $lvl2=2
CL29 Mmp36:g net417:3 6.73432e-17 $lvl1=3 $lvl2=2
CL30 CKb:36 net518:3 6.46787e-17 $lvl1=3 $lvl2=2
CL31 CKb:34 n35:38 1.12933e-17 $lvl1=3 $lvl2=2
CL32 CKb:36 n35:30 6.44356e-17 $lvl1=3 $lvl2=2
CL33 CKb:32 n35:25 1.31089e-16 $lvl1=3 $lvl2=2
CL34 CKb:47 n35:37 1.08029e-17 $lvl1=2 $lvl2=2
CL35 CKb:47 n35:38 2.0678e-17 $lvl1=2 $lvl2=2
CL36 CKb:49 mout:9 8.37486e-18 $lvl1=2 $lvl2=3
CL37 CKb:29 mout:9 5.89676e-18 $lvl1=3 $lvl2=3
CL38 CKb:50 mout:9 5.50415e-18 $lvl1=2 $lvl2=3
CL39 CKb:24 mout:9 4.0088e-18 $lvl1=3 $lvl2=3
CL40 CKb:34 mout:27 2.57801e-18 $lvl1=3 $lvl2=2
CL41 CKb:32 mout:20 1.50502e-18 $lvl1=3 $lvl2=2
CL42 CKb:29 mout:30 1.27086e-17 $lvl1=3 $lvl2=2
CL43 CKb:50 mout:30 1.08313e-17 $lvl1=2 $lvl2=2
CL44 CKb:32 mout:17 1.30124e-16 $lvl1=3 $lvl2=2
CL45 CKb:49 mout:27 3.11587e-17 $lvl1=2 $lvl2=2
CL46 CKb:47 mout:28 1.16005e-17 $lvl1=2 $lvl2=2
CL47 CKb:47 mout:33 1.29187e-17 $lvl1=2 $lvl2=1
CL48 CKb:47 mout:27 4.55422e-17 $lvl1=2 $lvl2=2
CL49 CKb:49 mout:30 6.53856e-17 $lvl1=2 $lvl2=2
CL50 CKb:50 CKbb:34 7.63076e-18 $lvl1=2 $lvl2=2
CL51 CKb:50 CKbb:44 6.79714e-18 $lvl1=2 $lvl2=2
CL52 CKb:29 CKbb:43 5.64319e-18 $lvl1=3 $lvl2=2
CL53 CKb:49 CKbb:44 4.34746e-18 $lvl1=2 $lvl2=2
CL54 CKb:50 CKbb:20 4.31651e-18 $lvl1=2 $lvl2=3
CL55 CKb:24 CKbb:17 4.26818e-18 $lvl1=3 $lvl2=3
CL56 CKb:24 CKbb:20 4.06526e-18 $lvl1=3 $lvl2=3
CL57 CKb:50 CKbb:17 3.61126e-18 $lvl1=2 $lvl2=3
CL58 CKb:34 CKbb:23 3.57296e-18 $lvl1=3 $lvl2=3
CL59 CKb:34 CKbb:26 3.46836e-18 $lvl1=3 $lvl2=3
CL60 Mmn21:g CKbb:43 3.46659e-18 $lvl1=3 $lvl2=2
CL61 CKb:24 CKbb:34 3.33683e-18 $lvl1=3 $lvl2=2
CL62 CKb:49 CKbb:33 2.95004e-18 $lvl1=2 $lvl2=2
CL63 CKb CKbb:20 2.56253e-18 $lvl1=3 $lvl2=3
CL64 CKb:36 CKbb:23 2.45854e-18 $lvl1=3 $lvl2=3
CL65 CKb:50 CKbb:48 2.08458e-18 $lvl1=2 $lvl2=2
CL66 CKb:29 CKbb:33 1.95799e-18 $lvl1=3 $lvl2=2
CL67 CKb:36 CKbb:40 1.94418e-18 $lvl1=3 $lvl2=2
CL68 CKb:52 CKbb:17 1.89793e-18 $lvl1=2 $lvl2=3
CL69 CKb:47 CKbb:54 1.83026e-18 $lvl1=2 $lvl2=1
CL70 CKb:27 CKbb:33 1.77561e-18 $lvl1=3 $lvl2=2
CL71 CKb:24 CKbb:44 1.74565e-18 $lvl1=3 $lvl2=2
CL72 CKb:27 CKbb:31 1.66272e-18 $lvl1=3 $lvl2=2
CL73 CKb:50 CKbb:35 1.55285e-18 $lvl1=2 $lvl2=2
CL74 CKb:52 CKbb:35 1.52855e-18 $lvl1=2 $lvl2=2
CL75 CKb:47 CKbb:56 1.50558e-18 $lvl1=2 $lvl2=1
CL76 CKb:50 CKbb:53 1.44897e-18 $lvl1=2 $lvl2=1
CL77 CKb:41 CKbb:35 1.4084e-18 $lvl1=2 $lvl2=2
CL78 Mmp36:g CKbb:17 1.37164e-18 $lvl1=3 $lvl2=3
CL79 CKb:32 CKbb:26 1.35462e-18 $lvl1=3 $lvl2=3
CL80 CKb:24 CKbb:48 1.3511e-18 $lvl1=3 $lvl2=2
CL81 CKb:53 CKbb:35 1.32591e-18 $lvl1=1 $lvl2=2
CL82 CKb:47 CKbb:42 1.31262e-18 $lvl1=2 $lvl2=2
CL83 CKb:47 CKbb:23 1.21749e-18 $lvl1=2 $lvl2=3
CL84 CKb:41 CKbb:17 1.19777e-18 $lvl1=2 $lvl2=3
CL85 CKb:50 CKbb:43 1.19289e-18 $lvl1=2 $lvl2=2
CL86 CKb:49 CKbb:20 1.10237e-18 $lvl1=2 $lvl2=3
CL87 CKb:52 CKbb:34 9.53812e-19 $lvl1=2 $lvl2=2
CL88 CKb:29 CKbb:44 9.36542e-19 $lvl1=3 $lvl2=2
CL89 CKb:47 CKbb:26 8.79044e-19 $lvl1=2 $lvl2=3
CL90 CKb:29 CKbb:53 8.69548e-19 $lvl1=3 $lvl2=1
CL91 Mmp36:g CKbb:34 8.50966e-19 $lvl1=3 $lvl2=2
CL92 CKb:50 CKbb:51 7.51686e-19 $lvl1=2 $lvl2=1
CL93 CKb:49 CKbb:34 6.86328e-19 $lvl1=2 $lvl2=2
CL94 CKb:50 CKbb:33 6.70596e-19 $lvl1=2 $lvl2=2
CL95 CKb:53 CKbb:17 6.54246e-19 $lvl1=1 $lvl2=3
CL96 CKb:37 CKbb:17 6.18111e-19 $lvl1=2 $lvl2=3
CL97 CKb:34 CKbb:40 6.15237e-19 $lvl1=3 $lvl2=2
CL98 Mmp36:g CKbb:33 6.09148e-19 $lvl1=3 $lvl2=2
CL99 CKb:52 CKbb:20 6.0257e-19 $lvl1=2 $lvl2=3
CL100 CKb:52 CKbb:48 5.89161e-19 $lvl1=2 $lvl2=2
CL101 CKb:34 CKbb:42 5.88952e-19 $lvl1=3 $lvl2=2
CL102 CKb:51 CKbb:35 5.20661e-19 $lvl1=2 $lvl2=2
CL103 CKb:37 CKbb:15 5.20129e-19 $lvl1=2 $lvl2=3
CL104 CKb:55 CKbb:35 5.00092e-19 $lvl1=1 $lvl2=2
CL105 CKb:55 CKbb:17 4.70599e-19 $lvl1=1 $lvl2=3
CL106 CKb:29 CKbb:20 4.64206e-19 $lvl1=3 $lvl2=3
CL107 CKb:36 CKbb:42 4.38508e-19 $lvl1=3 $lvl2=2
CL108 CKb:29 CKbb:47 4.37468e-19 $lvl1=3 $lvl2=2
CL109 CKb:29 CKbb:51 4.36953e-19 $lvl1=3 $lvl2=1
CL110 CKb:24 CKbb:35 4.19751e-19 $lvl1=3 $lvl2=2
CL111 CKb:55 CKbb:51 4.12849e-19 $lvl1=1 $lvl2=1
CL112 Mmn21:g CKbb:20 3.93708e-19 $lvl1=3 $lvl2=3
CL113 Mmn21:g CKbb:44 3.54216e-19 $lvl1=3 $lvl2=2
CL114 CKb:49 CKbb:51 1.09979e-17 $lvl1=2 $lvl2=1
CL115 CKb:27 CKbb:27 1.30125e-16 $lvl1=3 $lvl2=2
CL116 CKb:49 CKbb:53 1.42897e-17 $lvl1=2 $lvl2=1
CL117 Mmn21:g CKbb:47 6.6472e-17 $lvl1=3 $lvl2=2
CL118 CKb:49 CKbb:43 1.16488e-17 $lvl1=2 $lvl2=2
CL119 CKb:47 n20:27 9.34212e-18 $lvl1=2 $lvl2=1
CL120 CKb:49 n20:27 4.19141e-18 $lvl1=2 $lvl2=1
CL121 CKb:49 n20:29 3.21969e-18 $lvl1=2 $lvl2=1
CL122 CKb:57 n20:29 2.58522e-18 $lvl1=1 $lvl2=1
CL123 CKb:49 n20:31 2.42055e-18 $lvl1=2 $lvl2=1
CL124 CKb:55 n20:31 2.40088e-18 $lvl1=1 $lvl2=1
CL125 CKb:47 n20:9 2.04576e-18 $lvl1=2 $lvl2=3
CL126 CKb:47 n20:28 1.98395e-18 $lvl1=2 $lvl2=1
CL127 CKb:55 n20:29 1.87143e-18 $lvl1=1 $lvl2=1
CL128 CKb:24 n20:29 1.68925e-18 $lvl1=3 $lvl2=1
CL129 CKb:53 n20:31 1.67786e-18 $lvl1=1 $lvl2=1
CL130 Mmp36:g n20:16 1.49264e-18 $lvl1=3 $lvl2=2
CL131 CKb:34 n20:9 1.44571e-18 $lvl1=3 $lvl2=3
CL132 CKb:32 n20:9 1.42412e-18 $lvl1=3 $lvl2=3
CL133 CKb:24 n20:31 1.28573e-18 $lvl1=3 $lvl2=1
CL134 CKb:52 n20:29 9.64114e-19 $lvl1=2 $lvl2=1
CL135 CKb:49 n20:28 9.11817e-19 $lvl1=2 $lvl2=1
CL136 CKb:49 n20:9 7.53538e-19 $lvl1=2 $lvl2=3
CL137 CKb:50 n20:31 1.49931e-17 $lvl1=2 $lvl2=1
CL138 CKb n20:17 6.49127e-17 $lvl1=3 $lvl2=2
CL139 CKb:50 n20:29 1.52745e-17 $lvl1=2 $lvl2=1
CL140 Mmp36:g n20:12 1.34635e-16 $lvl1=3 $lvl2=2
CL141 Mmn21:g VSS!:28 8.09415e-18 $lvl1=3 $lvl2=2
CL142 CKb:46 VSS!:50 6.00934e-18 $lvl1=2 $lvl2=2
CL143 CKb:36 VSS!:23 4.79587e-18 $lvl1=3 $lvl2=2
CL144 CKb:36 VSS!:24 4.46184e-18 $lvl1=3 $lvl2=2
CL145 CKb:43 VSS!:50 4.42975e-18 $lvl1=2 $lvl2=2
CL146 CKb:43 VSS!:57 2.62884e-18 $lvl1=2 $lvl2=1
CL147 CKb:55 VSS!:57 2.52935e-18 $lvl1=1 $lvl2=1
CL148 CKb:43 VSS!:28 2.4786e-18 $lvl1=2 $lvl2=2
CL149 CKb:57 VSS!:50 2.34469e-18 $lvl1=1 $lvl2=2
CL150 CKb:46 VSS!:57 2.32065e-18 $lvl1=2 $lvl2=1
CL151 CKb:46 VSS!:26 2.28854e-18 $lvl1=2 $lvl2=2
CL152 CKb:57 VSS!:28 2.17134e-18 $lvl1=1 $lvl2=2
CL153 Mmn21:g VSS!:48 6.20873e-17 $lvl1=3 $lvl2=2
CL154 CKb VSS!:28 1.05428e-17 $lvl1=3 $lvl2=2
CL155 CKb:46 VSS!:28 1.37689e-17 $lvl1=2 $lvl2=2
CL156 CKb:57 VSS!:57 2.87698e-17 $lvl1=1 $lvl2=1
CL157 CKb:42 VSS!:28 1.29941e-17 $lvl1=2 $lvl2=2
CL158 CKb:42 VSS!:50 2.30706e-17 $lvl1=2 $lvl2=2
ReL395 CKb:53 CKb:54 0.078804 $metal1  $L=0.145 $W=0.230000 $SI_W=0.23 $TYPE=10 $DIR=1 $LLX=2.725000 $LLY=2.895000 $URX=2.955000 $URY=3.040000 $lvl=1
ReL396 CKb:54 CKb:55 0.608696 $metal1  $L=1.12 $W=0.230000 $SI_W=0.23 $TYPE=10 $DIR=1 $LLX=2.725000 $LLY=1.775000 $URX=2.955000 $URY=2.895000 $lvl=1
ReL397 CKb:55 CKb:56 0.608696 $metal1  $L=1.12 $W=0.230000 $SI_W=0.23 $TYPE=10 $DIR=1 $LLX=2.725000 $LLY=0.655000 $URX=2.955000 $URY=1.775000 $lvl=1
ReL398 CKb:56 CKb:57 0.078804 $metal1  $L=0.145 $W=0.230000 $SI_W=0.23 $TYPE=10 $DIR=1 $LLX=2.725000 $LLY=0.510000 $URX=2.955000 $URY=0.655000 $lvl=1
RfL399 CKb:37 CKb:39 29.364706 $li  $L=0.39 $W=0.170000 $SI_W=0.17 $TYPE=10 $DIR=1 $LLX=2.755000 $LLY=3.355000 $URX=2.925000 $URY=3.745000 $lvl=2
RfL400 CKb:39 CKb:40 34.635296 $li  $L=0.46 $W=0.170000 $SI_W=0.17 $TYPE=10 $DIR=1 $LLX=2.755000 $LLY=2.895000 $URX=2.925000 $URY=3.355000 $lvl=2
RfL401 CKb:40 CKb:41 12.423529 $li  $L=0.165 $W=0.170000 $SI_W=0.17 $TYPE=10 $DIR=1 $LLX=2.755000 $LLY=2.730000 $URX=2.925000 $URY=2.895000 $lvl=2
RfL402 CKb:42 CKb:43 12.423529 $li  $L=0.165 $W=0.170000 $SI_W=0.17 $TYPE=10 $DIR=1 $LLX=2.755000 $LLY=0.655000 $URX=2.925000 $URY=0.820000 $lvl=2
RfL403 CKb:43 CKb:45 3.764706 $li  $L=0.05 $W=0.170000 $SI_W=0.17 $TYPE=10 $DIR=1 $LLX=2.755000 $LLY=0.605000 $URX=2.925000 $URY=0.655000 $lvl=2
RfL404 CKb:45 CKb:46 15.811765 $li  $L=0.21 $W=0.170000 $SI_W=0.17 $TYPE=10 $DIR=1 $LLX=2.755000 $LLY=0.395000 $URX=2.925000 $URY=0.605000 $lvl=2
RfL405 CKb:47 CKb:48 12.423529 $li  $L=0.165 $W=0.170000 $SI_W=0.17 $TYPE=10 $DIR=0 $LLX=6.890000 $LLY=1.690000 $URX=7.055000 $URY=1.860000 $lvl=2
RfL406 CKb:48 CKb:49 147.952942 $li  $L=1.965 $W=0.170000 $SI_W=0.17 $TYPE=10 $DIR=0 $LLX=4.925000 $LLY=1.690000 $URX=6.890000 $URY=1.860000 $lvl=2
RfL407 CKb:49 CKb:50 85.458824 $li  $L=1.135 $W=0.170000 $SI_W=0.17 $TYPE=10 $DIR=0 $LLX=3.790000 $LLY=1.690000 $URX=4.925000 $URY=1.860000 $lvl=2
RfL408 CKb:50 CKb:51 71.529411 $li  $L=0.95 $W=0.170000 $SI_W=0.17 $TYPE=10 $DIR=0 $LLX=2.840000 $LLY=1.690000 $URX=3.790000 $URY=1.860000 $lvl=2
RfL409 CKb:51 CKb:52 12.423529 $li  $L=0.165 $W=0.170000 $SI_W=0.17 $TYPE=10 $DIR=0 $LLX=2.675000 $LLY=1.690000 $URX=2.840000 $URY=1.860000 $lvl=2
RgL410 CKb:22 Mmp36:g 173.519989 $poly  $L=0.54 $W=0.150000 $SI_W=0.15 $TYPE=10 $DIR=1 $LLX=3.930000 $LLY=3.355000 $URX=4.080000 $URY=3.895000 $lvl=3
RgL411 Mmp36:g CKb:23 507.626312 $poly  $L=1.57975 $W=0.150000 $SI_W=0.15 $TYPE=10 $DIR=1 $LLX=3.930000 $LLY=1.775000 $URX=4.080000 $URY=3.355000 $lvl=3
RgL412 CKb:23 CKb:24 38.426109 $poly  $L=0.21525 $W=0.270000 $SI_W=0.27 $TYPE=10 $DIR=0 $LLX=3.790000 $LLY=1.640000 $URX=4.005000 $URY=1.910000 $lvl=3
RgL413 CKb:24 CKb:25 38.336853 $poly  $L=0.21475 $W=0.270000 $SI_W=0.27 $TYPE=10 $DIR=0 $LLX=3.575000 $LLY=1.640000 $URX=3.790000 $URY=1.910000 $lvl=3
RgL414 CKb:25 CKb 375.237000 $poly  $L=1.16775 $W=0.150000 $SI_W=0.15 $TYPE=10 $DIR=1 $LLX=3.500000 $LLY=0.607000 $URX=3.650000 $URY=1.775000 $lvl=3
RgL415 CKb CKb:26 116.483322 $poly  $L=0.3625 $W=0.150000 $SI_W=0.15 $TYPE=10 $DIR=1 $LLX=3.500000 $LLY=0.245000 $URX=3.650000 $URY=0.607500 $lvl=3
RgL416 CKb:27 Mmp21:g 173.519989 $poly  $L=0.54 $W=0.150000 $SI_W=0.15 $TYPE=10 $DIR=1 $LLX=4.790000 $LLY=3.355000 $URX=4.940000 $URY=3.895000 $lvl=3
RgL417 Mmp21:g CKb:28 454.731293 $poly  $L=1.415 $W=0.150000 $SI_W=0.15 $TYPE=10 $DIR=1 $LLX=4.790000 $LLY=1.939500 $URX=4.940000 $URY=3.354500 $lvl=3
RgL418 CKb:28 CKb:29 38.857975 $poly  $L=0.1645 $W=0.270000 $SI_W=0.27 $TYPE=10 $DIR=1 $LLX=4.790000 $LLY=1.775000 $URX=5.060000 $URY=1.939500 $lvl=3
RgL419 CKb:29 CKb:30 29.410927 $poly  $L=0.1645 $W=0.270000 $SI_W=0.27 $TYPE=10 $DIR=1 $LLX=4.790000 $LLY=1.610500 $URX=5.060000 $URY=1.775000 $lvl=3
RgL420 CKb:30 Mmn21:g 322.181305 $poly  $L=1.0025 $W=0.150000 $SI_W=0.15 $TYPE=10 $DIR=1 $LLX=4.790000 $LLY=0.607500 $URX=4.940000 $URY=1.610000 $lvl=3
RgL421 Mmn21:g CKb:31 116.483322 $poly  $L=0.3625 $W=0.150000 $SI_W=0.15 $TYPE=10 $DIR=1 $LLX=4.790000 $LLY=0.245000 $URX=4.940000 $URY=0.607500 $lvl=3
RgL422 CKb:32 Mmp40:g 173.519989 $poly  $L=0.54 $W=0.150000 $SI_W=0.15 $TYPE=10 $DIR=1 $LLX=6.600000 $LLY=3.355000 $URX=6.750000 $URY=3.895000 $lvl=3
RgL423 Mmp40:g CKb:33 507.626312 $poly  $L=1.57975 $W=0.150000 $SI_W=0.15 $TYPE=10 $DIR=1 $LLX=6.600000 $LLY=1.775000 $URX=6.750000 $URY=3.355000 $lvl=3
RgL424 CKb:33 CKb:34 38.336853 $poly  $L=0.21475 $W=0.270000 $SI_W=0.27 $TYPE=10 $DIR=0 $LLX=6.675000 $LLY=1.640000 $URX=6.890000 $URY=1.910000 $lvl=3
RgL425 CKb:34 CKb:35 38.426109 $poly  $L=0.21525 $W=0.270000 $SI_W=0.27 $TYPE=10 $DIR=0 $LLX=6.890000 $LLY=1.640000 $URX=7.105000 $URY=1.910000 $lvl=3
RgL426 CKb:35 Mmn52:g 375.237000 $poly  $L=1.16775 $W=0.150000 $SI_W=0.15 $TYPE=10 $DIR=1 $LLX=7.030000 $LLY=0.607000 $URX=7.180000 $URY=1.775000 $lvl=3
RgL427 Mmn52:g CKb:36 116.483322 $poly  $L=0.3625 $W=0.150000 $SI_W=0.15 $TYPE=10 $DIR=1 $LLX=7.030000 $LLY=0.245000 $URX=7.180000 $URY=0.607500 $lvl=3
RhL428 Mmn20:d CKb:45 15.000000 $licon_diff  $L=0.17 $W=0.17 $A=0.0289 $VC=0 $SAVL=0 $SAVC=0 $SI_A=0.0289 $COVER_DIR=0 $LLX=0.000000 $LLY=0.000000 $URX=0.170000 $URY=0.170000 $lvl=5
Rh_2_L429 Mmp20:d CKb:39 7.500000 $licon_diff  $A=0.0578 $VC=0 $SAVL=0 $SAVC=0 $SI_A=0.0578 $COVER_DIR=0 $LLX=0.000000 $LLY=0.000000 $URX=-0.057800 $URY=-2.000000 $lvl=5
RjL430 CKb:40 CKb:54 152.000000 $mcon  $L=0.17 $W=0.17 $A=0.0289 $VC=0 $SAVL=0 $SAVC=0 $SI_A=0.0289 $COVER_DIR=0 $LLX=0.000000 $LLY=0.000000 $URX=0.170000 $URY=0.170000 $lvl=6
RjL431 CKb:51 CKb:55 152.000000 $mcon  $L=0.17 $W=0.17 $A=0.0289 $VC=0 $SAVL=0 $SAVC=0 $SI_A=0.0289 $COVER_DIR=0 $LLX=0.000000 $LLY=0.000000 $URX=0.170000 $URY=0.170000 $lvl=6
RjL432 CKb:43 CKb:56 152.000000 $mcon  $L=0.17 $W=0.17 $A=0.0289 $VC=0 $SAVL=0 $SAVC=0 $SI_A=0.0289 $COVER_DIR=0 $LLX=0.000000 $LLY=0.000000 $URX=0.170000 $URY=0.170000 $lvl=6
RiL433 CKb:34 CKb:48 15.000000 $licon  $L=0.17 $W=0.17 $A=0.0289 $VC=0 $SAVL=0 $SAVC=0 $SI_A=0.0289 $COVER_DIR=0 $LLX=0.000000 $LLY=0.000000 $URX=0.170000 $URY=0.170000 $lvl=7
RiL434 CKb:29 CKb:49 15.000000 $licon  $L=0.17 $W=0.17 $A=0.0289 $VC=0 $SAVL=0 $SAVC=0 $SI_A=0.0289 $COVER_DIR=0 $LLX=0.000000 $LLY=0.000000 $URX=0.170000 $URY=0.170000 $lvl=7
RiL435 CKb:24 CKb:50 15.000000 $licon  $L=0.17 $W=0.17 $A=0.0289 $VC=0 $SAVL=0 $SAVC=0 $SI_A=0.0289 $COVER_DIR=0 $LLX=0.000000 $LLY=0.000000 $URX=0.170000 $URY=0.170000 $lvl=7
RmwL436 Mmn25:g CKb 0.001000 $poly $W=1000000 $SI_W=1000000 $TYPE=1 $DIR=0
*
*|NET Db 2.67631e-15
*|I (Mmp12:d Mmp12 d X 0 1.4105 3.3550) // $llx=1.4105 $lly=3.3550 $urx=1.4105 $ury=3.3550 $lvl=4
*|I (Mmp25:s Mmp25 s X 0 3.4995 3.3550) // $llx=3.4995 $lly=3.3550 $urx=3.4995 $ury=3.3550 $lvl=4
*|I (Mmp14:d Mmp14 d X 0 1.6895 3.3550) // $llx=1.6895 $lly=3.3550 $urx=1.6895 $ury=3.3550 $lvl=4
*|I (Mmn25:d Mmn25 d X 0 3.4995 0.6075) // $llx=3.4995 $lly=0.6075 $urx=3.4995 $ury=0.6075 $lvl=4
*|I (Mmn14:d Mmn14 d X 0 1.6895 0.6075) // $llx=1.6895 $lly=0.6075 $urx=1.6895 $ury=0.6075 $lvl=4
*|I (Mmn12:d Mmn12 d X 0 1.4105 0.6075) // $llx=1.4105 $lly=0.6075 $urx=1.4105 $ury=0.6075 $lvl=4
*|S (Db 1.5500 3.7450) // $llx=1.5500 $lly=3.7450 $urx=1.5500 $ury=3.7450 $lvl=2
*|S (Db:3 1.5500 3.3550) // $llx=1.5500 $lly=3.3550 $urx=1.5500 $ury=3.3550 $lvl=2
*|S (Db:4 1.5500 2.8950) // $llx=1.5500 $lly=2.8950 $urx=1.5500 $ury=2.8950 $lvl=2
*|S (Db:5 1.5500 2.7300) // $llx=1.5500 $lly=2.7300 $urx=1.5500 $ury=2.7300 $lvl=2
*|S (Db:6 1.5500 0.8200) // $llx=1.5500 $lly=0.8200 $urx=1.5500 $ury=0.8200 $lvl=2
*|S (Db:7 1.5500 0.6550) // $llx=1.5500 $lly=0.6550 $urx=1.5500 $ury=0.6550 $lvl=2
*|S (Db:9 1.5500 0.6050) // $llx=1.5500 $lly=0.6050 $urx=1.5500 $ury=0.6050 $lvl=2
*|S (Db:10 1.5500 0.3950) // $llx=1.5500 $lly=0.3950 $urx=1.5500 $ury=0.3950 $lvl=2
*|S (Db:11 3.3600 3.7450) // $llx=3.3600 $lly=3.7450 $urx=3.3600 $ury=3.7450 $lvl=2
*|S (Db:13 3.3600 3.3550) // $llx=3.3600 $lly=3.3550 $urx=3.3600 $ury=3.3550 $lvl=2
*|S (Db:14 3.3600 2.8950) // $llx=3.3600 $lly=2.8950 $urx=3.3600 $ury=2.8950 $lvl=2
*|S (Db:15 3.3600 2.7300) // $llx=3.3600 $lly=2.7300 $urx=3.3600 $ury=2.7300 $lvl=2
*|S (Db:16 3.3600 0.8200) // $llx=3.3600 $lly=0.8200 $urx=3.3600 $ury=0.8200 $lvl=2
*|S (Db:17 3.3600 0.6550) // $llx=3.3600 $lly=0.6550 $urx=3.3600 $ury=0.6550 $lvl=2
*|S (Db:19 3.3600 0.6050) // $llx=3.3600 $lly=0.6050 $urx=3.3600 $ury=0.6050 $lvl=2
*|S (Db:20 3.3600 0.3950) // $llx=3.3600 $lly=0.3950 $urx=3.3600 $ury=0.3950 $lvl=2
*|S (Db:21 1.5500 0.5100) // $llx=1.5500 $lly=0.5100 $urx=1.5500 $ury=0.5100 $lvl=1
*|S (Db:22 1.5500 0.6550) // $llx=1.5500 $lly=0.6550 $urx=1.5500 $ury=0.6550 $lvl=1
*|S (Db:23 1.5500 2.8950) // $llx=1.5500 $lly=2.8950 $urx=1.5500 $ury=2.8950 $lvl=1
*|S (Db:24 1.5500 3.2950) // $llx=1.5500 $lly=3.2950 $urx=1.5500 $ury=3.2950 $lvl=1
*|S (Db:25 3.3600 3.2950) // $llx=3.3600 $lly=3.2950 $urx=3.3600 $ury=3.2950 $lvl=1
*|S (Db:26 3.3600 2.8950) // $llx=3.3600 $lly=2.8950 $urx=3.3600 $ury=2.8950 $lvl=1
*|S (Db:27 3.3600 0.6550) // $llx=3.3600 $lly=0.6550 $urx=3.3600 $ury=0.6550 $lvl=1
*|S (Db:28 3.3600 0.5100) // $llx=3.3600 $lly=0.5100 $urx=3.3600 $ury=0.5100 $lvl=1
CK1 Mmn14:d VSS! 1.99524e-18 $lvl=4
CK2 Mmn25:d VSS! 2.86652e-18 $lvl=4
CK3 Mmp25:s VSS! 2.66854e-18 $lvl=4
CK4 Mmp12:d VSS! 1.37269e-18 $lvl=4
CK5 Db:27 VSS! 1.10441e-17 $lvl=1
CK6 Db:26 VSS! 1.2737e-17 $lvl=1
CK7 Db:23 VSS! 1.06885e-17 $lvl=1
CK8 Db:22 VSS! 1.13846e-17 $lvl=1
CK9 Db:25 VSS! 9.79843e-18 $lvl=1
CK10 Db:24 VSS! 8.75487e-18 $lvl=1
CK11 Db:20 VSS! 3.21655e-18 $lvl=2
CK12 Db:11 VSS! 6.81133e-18 $lvl=2
CK13 Db:6 VSS! 9.79768e-18 $lvl=2
CK14 Db:10 VSS! 2.76922e-18 $lvl=2
CK15 Db:5 VSS! 4.14345e-18 $lvl=2
CK16 Db:7 VSS! 2.63735e-18 $lvl=2
CK17 Db:4 VSS! 2.89658e-18 $lvl=2
CK18 Db:17 VSS! 1.00766e-17 $lvl=2
CK19 Db:14 VSS! 5.39728e-18 $lvl=2
CK20 Db VSS! 1.78855e-18 $lvl=2
CK21 Db:6 net494:4 1.23615e-18 $lvl1=2 $lvl2=2
CK22 Db:22 net494 1.12845e-18 $lvl1=1 $lvl2=2
CK23 Db:7 net494 9.25899e-19 $lvl1=2 $lvl2=2
CK24 Db:7 net494:4 8.8117e-19 $lvl1=2 $lvl2=2
CK25 Db:24 net441:4 1.50116e-18 $lvl1=1 $lvl2=2
CK26 Db net441:4 1.42637e-18 $lvl1=2 $lvl2=2
CK27 Db Mmp14:s 1.04773e-18 $lvl1=2 $lvl2=4
CK28 Mmp12:d net441:3 3.23131e-19 $lvl1=4 $lvl2=2
CK29 Db:7 net506:4 8.81841e-19 $lvl1=2 $lvl2=2
CK30 Db:22 net506:4 6.79593e-19 $lvl1=1 $lvl2=2
CK31 Db net433:4 1.41947e-18 $lvl1=2 $lvl2=2
CK32 Db:24 net433 1.22915e-18 $lvl1=1 $lvl2=2
CK33 Db Mmp12:s 1.14487e-18 $lvl1=2 $lvl2=4
CK34 Db:6 net494:3 1.43753e-17 $lvl1=2 $lvl2=2
CK35 Db:6 net506:4 1.48233e-18 $lvl1=2 $lvl2=2
CK36 Db:23 net433:4 2.00277e-18 $lvl1=1 $lvl2=2
CK37 Db:22 net506:3 2.94789e-18 $lvl1=1 $lvl2=2
CK38 Db net441:3 2.33822e-17 $lvl1=2 $lvl2=2
CK39 Db net433:3 2.35623e-17 $lvl1=2 $lvl2=2
CK40 Db:6 net494 2.48728e-18 $lvl1=2 $lvl2=2
CK41 Db:6 net506 3.60291e-18 $lvl1=2 $lvl2=2
CK42 Db:5 net433:4 5.04443e-18 $lvl1=2 $lvl2=2
CK43 Db:7 net494:3 4.53175e-18 $lvl1=2 $lvl2=2
CK44 Db:7 net506 1.33321e-18 $lvl1=2 $lvl2=2
CK45 Db:4 net433:4 2.70598e-18 $lvl1=2 $lvl2=2
CK46 Db:5 net441:3 4.8093e-18 $lvl1=2 $lvl2=2
CK47 Db:10 net494:3 3.12799e-18 $lvl1=2 $lvl2=2
CK48 Db:10 net506:4 1.92021e-18 $lvl1=2 $lvl2=2
CK49 Db:23 net441:4 2.63878e-18 $lvl1=1 $lvl2=2
CK50 Db:24 net433:3 2.87704e-18 $lvl1=1 $lvl2=2
CK51 Db:4 net433:3 3.11284e-18 $lvl1=2 $lvl2=2
CK52 Db:23 net433:3 1.6335e-18 $lvl1=1 $lvl2=2
CK53 Db:6 net506:3 1.56256e-17 $lvl1=2 $lvl2=2
CK54 Db:24 net441 4.25641e-18 $lvl1=1 $lvl2=2
CK55 Db net441 5.85393e-18 $lvl1=2 $lvl2=2
CK56 Db:22 net494:3 2.00004e-18 $lvl1=1 $lvl2=2
CK57 Db:22 net506 2.22446e-18 $lvl1=1 $lvl2=2
CK58 Db net433 6.59561e-18 $lvl1=2 $lvl2=2
CK59 Db:7 net506:3 4.37165e-18 $lvl1=2 $lvl2=2
CK60 Db:4 net441:4 2.80229e-18 $lvl1=2 $lvl2=2
CK61 Db:5 net433:3 5.19767e-18 $lvl1=2 $lvl2=2
CK62 Db:5 net441:4 5.1015e-18 $lvl1=2 $lvl2=2
CK63 Db:10 net494:4 1.72504e-18 $lvl1=2 $lvl2=2
CK64 Db:23 net441:3 1.75331e-18 $lvl1=1 $lvl2=2
CK65 Db:10 net506:3 3.59258e-18 $lvl1=2 $lvl2=2
CK66 Db:4 net441:3 3.20409e-18 $lvl1=2 $lvl2=2
CK67 Db:24 net441:3 1.02916e-17 $lvl1=1 $lvl2=2
CK68 Db:14 CKbb:35 8.92189e-18 $lvl1=2 $lvl2=2
CK69 Db:26 CKbb:35 6.15309e-18 $lvl1=1 $lvl2=2
CK70 Db:26 CKbb:34 5.66352e-18 $lvl1=1 $lvl2=2
CK71 Db:14 CKbb:17 5.41352e-18 $lvl1=2 $lvl2=3
CK72 Db:14 CKbb:34 5.3215e-18 $lvl1=2 $lvl2=2
CK73 Db:27 CKbb:48 2.21977e-18 $lvl1=1 $lvl2=2
CK74 Db:17 CKbb:48 2.17302e-18 $lvl1=2 $lvl2=2
CK75 Db:11 CKbb:17 2.07658e-18 $lvl1=2 $lvl2=3
CK76 Db:17 CKbb:20 1.99628e-18 $lvl1=2 $lvl2=3
CK77 Db:26 CKbb:17 1.64154e-18 $lvl1=1 $lvl2=3
CK78 Db:14 CKbb:15 1.36044e-18 $lvl1=2 $lvl2=3
CK79 Db:27 CKbb:44 1.10846e-18 $lvl1=1 $lvl2=2
CK80 Db:11 CKbb:15 1.27729e-16 $lvl1=2 $lvl2=3
CK81 Db:14 n20:16 9.73198e-18 $lvl1=2 $lvl2=2
CK82 Db:27 n20:31 8.86105e-18 $lvl1=1 $lvl2=1
CK83 Db:17 n20:18 7.56291e-18 $lvl1=2 $lvl2=2
CK84 Db:14 n20:15 6.31265e-18 $lvl1=2 $lvl2=2
CK85 Db:26 n20:29 6.27834e-18 $lvl1=1 $lvl2=1
CK86 Db:25 n20:12 6.05487e-18 $lvl1=1 $lvl2=2
CK87 Db:14 n20:12 5.25531e-18 $lvl1=2 $lvl2=2
CK88 Db:17 n20:29 5.25405e-18 $lvl1=2 $lvl2=1
CK89 Db:14 n20:31 4.81101e-18 $lvl1=2 $lvl2=1
CK90 Db:11 n20:16 3.6046e-18 $lvl1=2 $lvl2=2
CK91 Db:17 n20:21 3.28749e-18 $lvl1=2 $lvl2=2
CK92 Db:20 n20:21 3.05505e-18 $lvl1=2 $lvl2=2
CK93 Db:26 n20:15 2.69352e-18 $lvl1=1 $lvl2=2
CK94 Db:27 n20:18 2.65566e-18 $lvl1=1 $lvl2=2
CK95 Db:20 n20:17 2.42598e-18 $lvl1=2 $lvl2=2