*
*|DSPF 1.5
*
*|DATE "Wed Jan  8 19:18:26 2025"
*|VENDOR "Cadence Design Systems"
*|PROGRAM "Cadence Quantus Extraction"
*|VERSION "22.1.0-p089 Linux 64 bit - (Thu Jan 19 11:47:08 PST 2023)"
*|DESIGN SDFFSRX4_HS
*|DIVIDER /
*|DELIMITER :
*|DeviceFingerDelim "@"
*|BUSBIT []
*|GLOBAL_TEMPERATURE 25
*|OPERATING_TEMPERATURE 25

** *VIA_COVERAGE_CODES
** *index FF FS FP FU SF SS SP SU PF PS PP PU UF US UP UU X_by_Y
** * "FF" stands for Full landing and Full coverage
** *0 0 0 0 0 0 0 0 0 0 0 0 0 0 0 0 0
** *1 0 0 0 0 0 0 0 0 0 0 0 0 0 0 0 1 1x1
** *2 0 0 0 0 0 0 0 0 0 0 0 0 0 0 1 0 1x1
** *3 0 0 0 0 0 0 0 0 0 0 0 0 0 1 0 0 1x1
** *4 0 0 0 0 0 0 0 0 0 0 0 0 1 0 0 0 1x1
** *5 0 0 0 0 0 0 0 0 0 0 0 1 0 0 0 0 1x1
** *6 0 0 0 0 0 0 0 0 0 0 1 0 0 0 0 0 1x1
** *7 0 0 0 0 0 0 0 0 0 1 0 0 0 0 0 0 1x1
** *8 0 0 0 0 0 0 0 0 1 0 0 0 0 0 0 0 1x1
** *9 0 0 0 0 0 0 0 1 0 0 0 0 0 0 0 0 1x1
** *10 0 0 0 0 0 0 1 0 0 0 0 0 0 0 0 0 1x1
** *11 0 0 0 0 0 1 0 0 0 0 0 0 0 0 0 0 1x1
** *12 0 0 0 0 1 0 0 0 0 0 0 0 0 0 0 0 1x1
** *13 0 0 0 1 0 0 0 0 0 0 0 0 0 0 0 0 1x1
** *14 0 0 1 0 0 0 0 0 0 0 0 0 0 0 0 0 1x1
** *15 0 1 0 0 0 0 0 0 0 0 0 0 0 0 0 0 1x1
** *16 1 0 0 0 0 0 0 0 0 0 0 0 0 0 0 0 1x1

** *RESISTOR_TYPES
** *1 SHORTING_ELEMENT
** *2 PRES_NG
** *3 PRES_PG
** *4 PRES_NF
** *5 PRES_PF
** *6 TCN_NDIFF
** *7 TCN_PDIFF
** *8 TCN_NFIELD
** *9 TCN_PFIELD
** *10 QUALITY_EXTRACTED
** *11 GCNLAND
** *12 TCNLAND
** *13 DUMMY
** *14 RSD
** *15 BRIDGE

** *RESISTOR_CURRENT_DIRECTION
** *0 HORIZONTAL
** *1 VERTICAL
** *2 45 DEGREE

** QRC_TECH_DIR /vols/wfo_devel/projects/reference_SKY130/tech/sky130_release_0.0.4/quantus/extraction/typical 
** HIERARCHICAL_SPLIT_PINS_DELIMITER '%'
** caps2d version: 10
*
.SUBCKT  SDFFSRX4_HS CK D Q QN RN SE SI SN
*
*Net Section
*
*|GROUND_NET VSS!
*
*LAYER_MAP
*0 none
*1 metal1
*2 li
*3 poly
*4 diff
*5 licon_diff
*6 mcon
*7 licon
*8 FOX

*|NET RN 1.03284e-15
*|P (RN X 0 3.6950 1.8800) // $llx=3.6950 $lly=1.8800 $urx=3.6950 $ury=1.8800 $lvl=1
*|I (Mmp22:g Mmp22 g X 0 4.0050 3.3550) // $llx=4.0050 $lly=3.3550 $urx=4.0050 $ury=3.3550 $lvl=3
*|I (Mmn22:g Mmn22 g X 0 4.0050 0.6075) // $llx=4.0050 $lly=0.6075 $urx=4.0050 $ury=0.6075 $lvl=3
*|S (RN:8 4.0050 3.8950) // $llx=4.0050 $lly=3.8950 $urx=4.0050 $ury=3.8950 $lvl=3
*|S (RN:9 4.0050 1.7750) // $llx=4.0050 $lly=1.7750 $urx=4.0050 $ury=1.7750 $lvl=3
*|S (RN:10 4.0050 1.6100) // $llx=4.0050 $lly=1.6100 $urx=4.0050 $ury=1.6100 $lvl=3
*|S (RN:11 4.0050 0.2450) // $llx=4.0050 $lly=0.2450 $urx=4.0050 $ury=0.2450 $lvl=3
*|S (RN:12 4.1700 1.7750) // $llx=4.1700 $lly=1.7750 $urx=4.1700 $ury=1.7750 $lvl=2
*|S (RN:13 4.0050 1.7750) // $llx=4.0050 $lly=1.7750 $urx=4.0050 $ury=1.7750 $lvl=2
*|S (RN:14 3.6800 1.7750) // $llx=3.6800 $lly=1.7750 $urx=3.6800 $ury=1.7750 $lvl=2
*|S (RN:15 3.5150 1.7750) // $llx=3.5150 $lly=1.7750 $urx=3.5150 $ury=1.7750 $lvl=2
*|S (RN:16 3.6800 2.3850) // $llx=3.6800 $lly=2.3850 $urx=3.6800 $ury=2.3850 $lvl=1
*|S (RN:17 3.6800 1.7750) // $llx=3.6800 $lly=1.7750 $urx=3.6800 $ury=1.7750 $lvl=1
*|S (RN:18 3.6800 1.1450) // $llx=3.6800 $lly=1.1450 $urx=3.6800 $ury=1.1450 $lvl=1
CE1 Mmn22:g VSS! 1.08772e-18 $lvl=3
CE2 RN:16 VSS! 6.72098e-18 $lvl=1
CE3 RN:18 VSS! 9.4174e-18 $lvl=1
CE4 RN:8 VSS! 1.91416e-18 $lvl=3
CE5 RN:13 VSS! 3.34206e-18 $lvl=2
CE6 RN:15 VSS! 5.78388e-18 $lvl=2
CE7 RN:14 VSS! 2.15546e-18 $lvl=2
CE8 RN:9 VSS! 2.14787e-17 $lvl=3
CE9 RN VSS! 5.23622e-18 $lvl=1
CE10 RN:16 RNb:41 3.05254e-18 $lvl1=1 $lvl2=1
CE11 RN RNb:45 2.30448e-18 $lvl1=1 $lvl2=1
CE12 RN:16 RNb:39 2.2151e-18 $lvl1=1 $lvl2=2
CE13 RN:14 RNb:43 2.10161e-18 $lvl1=2 $lvl2=1
CE14 RN:13 RNb:45 1.65195e-18 $lvl1=2 $lvl2=1
CE15 RN:8 RNb:40 1.61788e-18 $lvl1=3 $lvl2=2
CE16 RN:16 RNb:40 1.46593e-18 $lvl1=1 $lvl2=2
CE17 RN:9 RNb:40 1.3522e-18 $lvl1=3 $lvl2=2
CE18 RN:16 RNb:45 9.26031e-19 $lvl1=1 $lvl2=1
CE19 Mmn22:g RNb:35 6.39759e-19 $lvl1=3 $lvl2=2
CE20 RN:14 RNb:45 5.89486e-19 $lvl1=2 $lvl2=1
CE21 RN:18 RNb:43 9.3468e-18 $lvl1=1 $lvl2=1
CE22 RN:16 RNb:43 3.82078e-17 $lvl1=1 $lvl2=1
CE23 RN:13 RNb:43 8.42308e-18 $lvl1=2 $lvl2=1
CE24 RN RNb:43 1.26394e-17 $lvl1=1 $lvl2=1
CE25 Mmn22:g RNb:31 6.62269e-17 $lvl1=3 $lvl2=2
CE26 RN:18 RNb:45 3.34126e-17 $lvl1=1 $lvl2=1
CE27 RN:8 RNb:27 1.33244e-16 $lvl1=3 $lvl2=2
CE28 RN:9 CKbb:39 5.11316e-18 $lvl1=3 $lvl2=2
CE29 RN:16 CKbb:40 5.06863e-18 $lvl1=1 $lvl2=2
CE30 RN:14 CKbb:44 4.08544e-18 $lvl1=2 $lvl2=1
CE31 RN:15 CKbb:40 2.39452e-18 $lvl1=2 $lvl2=2
CE32 RN:14 CKbb:40 2.27452e-18 $lvl1=2 $lvl2=2
CE33 RN:15 CKbb:44 1.9874e-18 $lvl1=2 $lvl2=1
CE34 RN:9 CKbb:17 9.9863e-19 $lvl1=3 $lvl2=3
CE35 RN:8 CKbb:27 8.5683e-19 $lvl1=3 $lvl2=2
CE36 RN:8 CKbb:41 8.10372e-19 $lvl1=3 $lvl2=2
CE37 RN:16 CKbb:27 6.74257e-19 $lvl1=1 $lvl2=2
CE38 RN CKbb:45 6.66176e-19 $lvl1=1 $lvl2=1
CE39 RN:16 CKbb:39 6.49208e-19 $lvl1=1 $lvl2=2
CE40 RN CKbb:41 5.84232e-19 $lvl1=1 $lvl2=2
CE41 RN:16 CKbb:45 5.52186e-19 $lvl1=1 $lvl2=1
CE42 RN:18 CKbb:32 5.5192e-19 $lvl1=1 $lvl2=2
CE43 Mmn22:g CKbb:34 4.58882e-19 $lvl1=3 $lvl2=2
CE44 RN:16 CKbb:30 3.09576e-19 $lvl1=1 $lvl2=2
CE45 RN:9 CKbb:41 1.15078e-17 $lvl1=3 $lvl2=2
CE46 RN:15 CKbb:41 2.67503e-17 $lvl1=2 $lvl2=2
CE47 RN:16 CKbb:46 8.69476e-18 $lvl1=1 $lvl2=1
CE48 RN:18 CKbb:44 3.22857e-17 $lvl1=1 $lvl2=1
CE49 RN:18 CKbb:45 5.05095e-17 $lvl1=1 $lvl2=1
CE50 RN:16 CKbb:44 7.01704e-17 $lvl1=1 $lvl2=1
CE51 RN:13 CKbb:41 1.39066e-17 $lvl1=2 $lvl2=2
CE52 RN:13 CKbb:39 1.01309e-17 $lvl1=2 $lvl2=2
CE53 RN:16 CKbb:41 1.40665e-17 $lvl1=1 $lvl2=2
CE54 RN:14 CKbb:41 6.23616e-18 $lvl1=2 $lvl2=2
CE55 RN CKbb:44 2.77765e-17 $lvl1=1 $lvl2=1
CE56 RN:9 CKb:52 3.4838e-18 $lvl1=3 $lvl2=2
CE57 RN:18 CKb:58 1.61307e-18 $lvl1=1 $lvl2=1
CE58 RN:16 CKb:56 1.22445e-18 $lvl1=1 $lvl2=1
CE59 RN:9 CKb:29 1.20119e-18 $lvl1=3 $lvl2=3
CE60 RN:16 CKb:58 1.19497e-18 $lvl1=1 $lvl2=1
CE61 RN:15 CKb:49 1.05254e-18 $lvl1=2 $lvl2=2
CE62 Mmn22:g CKb:24 9.91429e-19 $lvl1=3 $lvl2=3
CE63 RN CKb:58 7.82066e-19 $lvl1=1 $lvl2=1
CE64 RN:18 CKb:60 6.90005e-19 $lvl1=1 $lvl2=1
CE65 Mmn22:g CKb:51 5.88049e-19 $lvl1=3 $lvl2=2
CE66 RN CKb:51 4.58502e-19 $lvl1=1 $lvl2=2
CE67 RN:15 CKb:58 3.96722e-19 $lvl1=2 $lvl2=1
CE68 RN:18 CKb:52 3.43658e-19 $lvl1=1 $lvl2=2
CE69 Mmn22:g CKb:52 3.09869e-19 $lvl1=3 $lvl2=2
CE70 RN:9 CKb:26 3.05349e-19 $lvl1=3 $lvl2=3
CE71 RN:9 CKb:24 5.87869e-18 $lvl1=3 $lvl2=3
CE72 RN:13 CKb:51 1.84705e-17 $lvl1=2 $lvl2=2
CE73 RN:13 CKb:52 6.35481e-18 $lvl1=2 $lvl2=2
CE74 RN:14 CKb:51 6.22173e-18 $lvl1=2 $lvl2=2
CE75 RN:18 CKb:51 1.25272e-17 $lvl1=1 $lvl2=2
CE76 RN:15 CKb:24 6.71881e-18 $lvl1=2 $lvl2=3
CE77 RN:9 CKb:51 1.01376e-17 $lvl1=3 $lvl2=2
CE78 RN:15 CKb:51 2.35854e-17 $lvl1=2 $lvl2=2
CE79 Mmn22:g Db:19 3.64003e-18 $lvl1=3 $lvl2=2
CE80 RN:9 Db:19 2.05456e-18 $lvl1=3 $lvl2=2
CE81 RN:8 Db:10 1.16659e-18 $lvl1=3 $lvl2=2
CE82 RN:18 Db:30 1.15477e-18 $lvl1=1 $lvl2=1
CE83 RN:16 Db:28 9.31965e-19 $lvl1=1 $lvl2=1
CE84 RN:16 Db:30 8.66975e-19 $lvl1=1 $lvl2=1
CE85 RN:13 Db:30 7.19579e-19 $lvl1=2 $lvl2=1
CE86 Mmn22:g Db:14 6.87297e-19 $lvl1=3 $lvl2=2
CE87 RN:18 Db:19 1.02408e-17 $lvl1=1 $lvl2=2
CE88 RN:18 VSS!:60 3.51495e-18 $lvl1=1 $lvl2=1
CE89 Mmn22:g VSS!:45 8.91312e-18 $lvl1=3 $lvl2=2
CE90 Mmn22:g VSS!:50 6.62951e-17 $lvl1=3 $lvl2=2
CE91 RN:16 VDD! 2.70415e-18 $lvl1=1 $lvl2=1
CE92 RN:18 VDD! 2.29088e-18 $lvl1=1 $lvl2=1
CE93 RN:16 VDD!:63 1.6031e-18 $lvl1=1 $lvl2=1
CE94 RN:16 VDD!:19 1.55057e-18 $lvl1=1 $lvl2=2
CE95 RN:9 VDD! 5.43479e-18 $lvl1=3 $lvl2=1
CE96 RN:8 VDD!:19 1.296e-16 $lvl1=3 $lvl2=2
CE97 RN:8 VDD!:5 8.31096e-18 $lvl1=3 $lvl2=2
ReE98 RN:16 RN 0.242788 $metal1  $L=0.505 $W=0.260000 $SI_W=0.26 $TYPE=10 $DIR=1 $LLX=3.550000 $LLY=1.880000 $URX=3.810000 $URY=2.385000 $lvl=1
ReE99 RN RN:17 0.050481 $metal1  $L=0.105 $W=0.260000 $SI_W=0.26 $TYPE=10 $DIR=1 $LLX=3.565000 $LLY=1.775000 $URX=3.825000 $URY=1.880000 $lvl=1
ReE100 RN:17 RN:18 0.302885 $metal1  $L=0.63 $W=0.260000 $SI_W=0.26 $TYPE=10 $DIR=1 $LLX=3.550000 $LLY=1.145000 $URX=3.810000 $URY=1.775000 $lvl=1
RfE101 RN:12 RN:13 12.423529 $li  $L=0.165 $W=0.170000 $SI_W=0.17 $TYPE=10 $DIR=0 $LLX=4.005000 $LLY=1.690000 $URX=4.170000 $URY=1.860000 $lvl=2
RfE102 RN:13 RN:14 24.470589 $li  $L=0.325 $W=0.170000 $SI_W=0.17 $TYPE=10 $DIR=0 $LLX=3.680000 $LLY=1.690000 $URX=4.005000 $URY=1.860000 $lvl=2
RfE103 RN:14 RN:15 12.423529 $li  $L=0.165 $W=0.170000 $SI_W=0.17 $TYPE=10 $DIR=0 $LLX=3.515000 $LLY=1.690000 $URX=3.680000 $URY=1.860000 $lvl=2
RgE104 RN:8 Mmp22:g 173.519989 $poly  $L=0.54 $W=0.150000 $SI_W=0.15 $TYPE=10 $DIR=1 $LLX=3.930000 $LLY=3.355000 $URX=4.080000 $URY=3.895000 $lvl=3
RgE105 Mmp22:g RN:9 488.865753 $poly  $L=1.58 $W=0.150000 $SI_W=0.15 $TYPE=10 $DIR=1 $LLX=3.930000 $LLY=1.775000 $URX=4.080000 $URY=3.355000 $lvl=3
RgE106 RN:9 RN:10 34.134449 $poly  $L=0.1645 $W=0.270000 $SI_W=0.27 $TYPE=10 $DIR=1 $LLX=3.870000 $LLY=1.610500 $URX=4.140000 $URY=1.775000 $lvl=3
RgE107 RN:10 Mmn22:g 322.181305 $poly  $L=1.0025 $W=0.150000 $SI_W=0.15 $TYPE=10 $DIR=1 $LLX=3.930000 $LLY=0.607500 $URX=4.080000 $URY=1.610000 $lvl=3
RgE108 Mmn22:g RN:11 116.483322 $poly  $L=0.3625 $W=0.150000 $SI_W=0.15 $TYPE=10 $DIR=1 $LLX=3.930000 $LLY=0.245000 $URX=4.080000 $URY=0.607500 $lvl=3
RjE109 RN:14 RN:17 152.000000 $mcon  $L=0.17 $W=0.17 $A=0.0289 $VC=0 $SAVL=0 $SAVC=0 $SI_A=0.0289 $COVER_DIR=0 $LLX=0.000000 $LLY=0.000000 $URX=0.170000 $URY=0.170000 $lvl=6
RiE110 RN:9 RN:13 15.000000 $licon  $L=0.17 $W=0.17 $A=0.0289 $VC=0 $SAVL=0 $SAVC=0 $SI_A=0.0289 $COVER_DIR=0 $LLX=0.000000 $LLY=0.000000 $URX=0.170000 $URY=0.170000 $lvl=7
*
*|NET CK 9.16729e-16
*|P (CK X 0 2.3150 2.5750) // $llx=2.3150 $lly=2.5750 $urx=2.3150 $ury=2.5750 $lvl=1
*|I (Mmp20:g Mmp20 g X 0 2.6250 3.3550) // $llx=2.6250 $lly=3.3550 $urx=2.6250 $ury=3.3550 $lvl=3
*|I (Mmn20:g Mmn20 g X 0 2.6250 0.6075) // $llx=2.6250 $lly=0.6075 $urx=2.6250 $ury=0.6075 $lvl=3
*|S (CK:8 2.6250 3.8950) // $llx=2.6250 $lly=3.8950 $urx=2.6250 $ury=3.8950 $lvl=3
*|S (CK:9 2.6250 1.9750) // $llx=2.6250 $lly=1.9750 $urx=2.6250 $ury=1.9750 $lvl=3
*|S (CK:10 2.6250 1.8100) // $llx=2.6250 $lly=1.8100 $urx=2.6250 $ury=1.8100 $lvl=3
*|S (CK:11 2.6250 0.2450) // $llx=2.6250 $lly=0.2450 $urx=2.6250 $ury=0.2450 $lvl=3
*|S (CK:12 2.7900 1.9750) // $llx=2.7900 $lly=1.9750 $urx=2.7900 $ury=1.9750 $lvl=2
*|S (CK:13 2.6250 1.9750) // $llx=2.6250 $lly=1.9750 $urx=2.6250 $ury=1.9750 $lvl=2
*|S (CK:14 2.3000 1.9750) // $llx=2.3000 $lly=1.9750 $urx=2.3000 $ury=1.9750 $lvl=2
*|S (CK:15 2.0650 1.9750) // $llx=2.0650 $lly=1.9750 $urx=2.0650 $ury=1.9750 $lvl=2
*|S (CK:16 2.3000 3.2600) // $llx=2.3000 $lly=3.2600 $urx=2.3000 $ury=3.2600 $lvl=1
*|S (CK:17 2.3000 1.9750) // $llx=2.3000 $lly=1.9750 $urx=2.3000 $ury=1.9750 $lvl=1
*|S (CK:18 2.3000 1.8300) // $llx=2.3000 $lly=1.8300 $urx=2.3000 $ury=1.8300 $lvl=1
CA1 Mmn20:g VSS! 1.83583e-18 $lvl=3
CA2 CK:16 VSS! 1.20725e-17 $lvl=1
CA3 CK:18 VSS! 1.11146e-17 $lvl=1
CA4 CK:8 VSS! 2.61841e-18 $lvl=3
CA5 CK:13 VSS! 4.61696e-18 $lvl=2
CA6 CK:15 VSS! 4.30705e-18 $lvl=2
CA7 CK:14 VSS! 5.29873e-18 $lvl=2
CA8 CK:9 VSS! 1.90802e-17 $lvl=3
CA9 CK:14 n3:4 2.96052e-19 $lvl1=2 $lvl2=2
CA10 CK:8 n3:3 2.86736e-19 $lvl1=3 $lvl2=2
CA11 CK:18 n3:4 2.82965e-19 $lvl1=1 $lvl2=2
CA12 CK:9 n3:4 2.53211e-19 $lvl1=3 $lvl2=2
CA13 CK:16 n3:3 6.81205e-18 $lvl1=1 $lvl2=2
CA14 CK:16 n3:4 5.23445e-18 $lvl1=1 $lvl2=2
CA15 CK:16 n3 1.69058e-18 $lvl1=1 $lvl2=2
CA16 CK:9 CKbb:41 3.5555e-18 $lvl1=3 $lvl2=2
CA17 CK:16 CKbb:46 2.53823e-18 $lvl1=1 $lvl2=1
CA18 CK:13 CKbb:40 1.72669e-18 $lvl1=2 $lvl2=2
CA19 CK:16 CKbb:44 1.65174e-18 $lvl1=1 $lvl2=1
CA20 CK:13 CKbb:44 1.55679e-18 $lvl1=2 $lvl2=1
CA21 CK:18 CKbb:44 1.28961e-18 $lvl1=1 $lvl2=1
CA22 CK:8 CKbb:27 1.09409e-18 $lvl1=3 $lvl2=2
CA23 Mmn20:g CKbb:34 7.1527e-19 $lvl1=3 $lvl2=2
CA24 CK:9 CKbb:40 5.55662e-19 $lvl1=3 $lvl2=2
CA25 CK:18 CKbb:46 5.54063e-19 $lvl1=1 $lvl2=1
CA26 CK:9 CKbb:27 5.48225e-19 $lvl1=3 $lvl2=2
CA27 CK:16 CKbb:41 4.90222e-19 $lvl1=1 $lvl2=2
CA28 CK:16 CKbb:27 4.57255e-19 $lvl1=1 $lvl2=2
CA29 CK:9 CKbb:44 4.29e-19 $lvl1=3 $lvl2=1
CA30 CK:13 CKbb:41 5.44633e-18 $lvl1=2 $lvl2=2
CA31 CK:13 CKb:49 4.46756e-18 $lvl1=2 $lvl2=2
CA32 CK:16 CKb:40 4.17848e-18 $lvl1=1 $lvl2=2
CA33 CK:13 CKb:56 2.47451e-18 $lvl1=2 $lvl2=1
CA34 CK:16 CKb:43 2.21867e-18 $lvl1=1 $lvl2=2
CA35 CK:14 CKb:58 2.0045e-18 $lvl1=2 $lvl2=1
CA36 CK:13 CKb:50 1.89467e-18 $lvl1=2 $lvl2=2
CA37 CK:9 CKb:40 1.36534e-18 $lvl1=3 $lvl2=2
CA38 CK:9 CKb:56 1.24906e-18 $lvl1=3 $lvl2=1
CA39 CK:9 CKb:58 1.18123e-18 $lvl1=3 $lvl2=1
CA40 CK:9 CKb:24 1.08986e-18 $lvl1=3 $lvl2=3
CA41 CK:14 CKb:56 9.63442e-19 $lvl1=2 $lvl2=1
CA42 Mmn20:g CKb:49 7.14248e-19 $lvl1=3 $lvl2=2
CA43 CK:14 CKb:49 7.11335e-19 $lvl1=2 $lvl2=2
CA44 Mmn20:g CKb:48 6.80659e-19 $lvl1=3 $lvl2=2
CA45 CK:9 CKb:50 6.27209e-19 $lvl1=3 $lvl2=2
CA46 CK:13 CKb:51 6.20571e-19 $lvl1=2 $lvl2=2
CA47 CK:13 CKb:40 6.13348e-19 $lvl1=2 $lvl2=2
CA48 CK:9 CKb:51 6.00329e-19 $lvl1=3 $lvl2=2
CA49 CK:14 CKb:50 4.42191e-19 $lvl1=2 $lvl2=2
CA50 CK:13 CKb:24 4.08261e-19 $lvl1=2 $lvl2=3
CA51 Mmn20:g CKb:24 4.06559e-19 $lvl1=3 $lvl2=3
CA52 CK:18 CKb:50 4.03204e-19 $lvl1=1 $lvl2=2
CA53 CK:13 CKb:58 1.02677e-17 $lvl1=2 $lvl2=1
CA54 CK:16 CKb:58 4.64627e-18 $lvl1=1 $lvl2=1
CA55 CK:9 CKb:49 4.90445e-18 $lvl1=3 $lvl2=2
CA56 CK:18 CKb:58 2.95959e-17 $lvl1=1 $lvl2=1
CA57 CK:16 CKb:56 5.9683e-17 $lvl1=1 $lvl2=1
CA58 CK:8 CKb:40 1.32309e-16 $lvl1=3 $lvl2=2
CA59 CK:18 CKb:56 9.45521e-18 $lvl1=1 $lvl2=1
CA60 Mmn20:g CKb:44 6.75545e-17 $lvl1=3 $lvl2=2
CA61 Mmn20:g Db:22 3.02948e-18 $lvl1=3 $lvl2=2
CA62 CK:16 Db:25 2.44962e-18 $lvl1=1 $lvl2=1
CA63 CK:16 Db 2.33119e-18 $lvl1=1 $lvl2=2
CA64 CK:9 Db:22 9.77962e-19 $lvl1=3 $lvl2=2
CA65 CK:15 Db:25 8.79528e-19 $lvl1=2 $lvl2=1
CA66 CK:16 Db:4 8.07578e-19 $lvl1=1 $lvl2=2
CA67 CK:14 Db:25 7.89423e-19 $lvl1=2 $lvl2=1
CA68 CK:15 Db:23 6.18584e-19 $lvl1=2 $lvl2=1
CA69 CK:18 Db:23 9.98121e-18 $lvl1=1 $lvl2=1
CA70 CK:18 Db:25 1.22737e-17 $lvl1=1 $lvl2=1
CA71 CK:16 Db:23 3.29445e-17 $lvl1=1 $lvl2=1
CA72 CK:18 SEb:29 4.45072e-18 $lvl1=1 $lvl2=2
CA73 CK:14 SEb:27 2.43925e-18 $lvl1=2 $lvl2=2
CA74 CK:18 SEb:27 1.83734e-18 $lvl1=1 $lvl2=2
CA75 CK:9 SEb:12 1.56926e-18 $lvl1=3 $lvl2=3
CA76 CK:15 SEb:12 1.45782e-18 $lvl1=2 $lvl2=3
CA77 CK:16 SEb:12 1.30583e-18 $lvl1=1 $lvl2=3
CA78 CK:14 SEb:12 1.22454e-18 $lvl1=2 $lvl2=3
CA79 CK:9 SEb:29 1.1767e-18 $lvl1=3 $lvl2=2
CA80 CK:9 SEb:27 6.0025e-19 $lvl1=3 $lvl2=2
CA81 CK:16 SEb:30 5.78363e-19 $lvl1=1 $lvl2=1
CA82 CK:16 SEb:32 4.97246e-19 $lvl1=1 $lvl2=1
CA83 CK:15 SEb:29 1.11664e-17 $lvl1=2 $lvl2=2
CA84 CK:16 SEb:29 6.64186e-18 $lvl1=1 $lvl2=2
CA85 CK:14 SEb:29 4.6165e-18 $lvl1=2 $lvl2=2
CA86 CK:15 SEb:27 6.89247e-18 $lvl1=2 $lvl2=2
CA87 Mmn20:g VSS!:45 9.65337e-18 $lvl1=3 $lvl2=2
CA88 Mmn20:g VSS!:53 6.72738e-17 $lvl1=3 $lvl2=2
CA89 CK:18 VDD! 3.24385e-18 $lvl1=1 $lvl2=1
CA90 CK:14 VDD! 1.47646e-18 $lvl1=2 $lvl2=1
CA91 CK:16 VDD!:5 1.21843e-18 $lvl1=1 $lvl2=2
CA92 CK:18 VDD!:63 1.1375e-18 $lvl1=1 $lvl2=1
CA93 CK:13 VDD! 1.07667e-18 $lvl1=2 $lvl2=1
CA94 CK:15 VDD! 9.36256e-19 $lvl1=2 $lvl2=1
CA95 CK:9 VDD!:16 9.32633e-19 $lvl1=3 $lvl2=2
CA96 CK:16 VDD!:6 8.49983e-19 $lvl1=1 $lvl2=2
CA97 CK:8 VDD!:5 8.00304e-18 $lvl1=3 $lvl2=2
CA98 CK:16 VDD! 7.37103e-18 $lvl1=1 $lvl2=1
CA99 CK:16 VDD!:16 2.05954e-17 $lvl1=1 $lvl2=2
CA100 CK:9 VDD! 1.0395e-17 $lvl1=3 $lvl2=1
CA101 CK:16 VDD!:63 1.96726e-17 $lvl1=1 $lvl2=1
CA102 CK:8 VDD!:16 1.31429e-16 $lvl1=3 $lvl2=2
CA103 CK:14 SI:14 3.84353e-18 $lvl1=2 $lvl2=2
CA104 CK:14 SI:9 3.58677e-18 $lvl1=2 $lvl2=3
CA105 CK:15 SI:9 2.76575e-18 $lvl1=2 $lvl2=3
CA106 CK:9 SI:14 2.42486e-18 $lvl1=3 $lvl2=2
CA107 CK:13 SI:14 2.12756e-18 $lvl1=2 $lvl2=2
CA108 CK:14 SI 2.12129e-18 $lvl1=2 $lvl2=1
CA109 CK:18 SI:13 1.72554e-18 $lvl1=1 $lvl2=2
CA110 CK:15 SI:14 1.30914e-18 $lvl1=2 $lvl2=2
CA111 CK:13 SI:13 1.28014e-18 $lvl1=2 $lvl2=2
CA112 CK:15 SI:15 1.27525e-18 $lvl1=2 $lvl2=2
CA113 CK:15 SI:13 1.22507e-18 $lvl1=2 $lvl2=2
CA114 CK:16 SI 1.18275e-18 $lvl1=1 $lvl2=1
CA115 CK:14 SI:15 1.03479e-18 $lvl1=2 $lvl2=2
CA116 Mmn20:g SI:9 8.40661e-19 $lvl1=3 $lvl2=3
CA117 CK:13 SI:9 6.68265e-19 $lvl1=2 $lvl2=3
CA118 CK:13 SI 5.82502e-19 $lvl1=2 $lvl2=1
CA119 CK:14 SI:13 6.04456e-18 $lvl1=2 $lvl2=2
CA120 CK:9 SI:9 5.58458e-18 $lvl1=3 $lvl2=3
CA121 CK:18 SI 3.2163e-17 $lvl1=1 $lvl2=1
ReA1 CK:16 CK 0.329327 $metal1  $L=0.685 $W=0.260000 $SI_W=0.26 $TYPE=10 $DIR=1 $LLX=2.170000 $LLY=2.575000 $URX=2.430000 $URY=3.260000 $lvl=1
ReA2 CK CK:17 0.288462 $metal1  $L=0.6 $W=0.260000 $SI_W=0.26 $TYPE=10 $DIR=1 $LLX=2.170000 $LLY=1.975000 $URX=2.430000 $URY=2.575000 $lvl=1
ReA3 CK:17 CK:18 0.078804 $metal1  $L=0.145 $W=0.230000 $SI_W=0.23 $TYPE=10 $DIR=1 $LLX=2.185000 $LLY=1.830000 $URX=2.415000 $URY=1.975000 $lvl=1
RfA4 CK:12 CK:13 12.423529 $li  $L=0.165 $W=0.170000 $SI_W=0.17 $TYPE=10 $DIR=0 $LLX=2.625000 $LLY=1.890000 $URX=2.790000 $URY=2.060000 $lvl=2
RfA5 CK:13 CK:14 24.470589 $li  $L=0.325 $W=0.170000 $SI_W=0.17 $TYPE=10 $DIR=0 $LLX=2.300000 $LLY=1.890000 $URX=2.625000 $URY=2.060000 $lvl=2
RfA6 CK:14 CK:15 17.694118 $li  $L=0.235 $W=0.170000 $SI_W=0.17 $TYPE=10 $DIR=0 $LLX=2.065000 $LLY=1.890000 $URX=2.300000 $URY=2.060000 $lvl=2
RgA7 CK:8 Mmp20:g 173.519989 $poly  $L=0.54 $W=0.150000 $SI_W=0.15 $TYPE=10 $DIR=1 $LLX=2.550000 $LLY=3.355000 $URX=2.700000 $URY=3.895000 $lvl=3
RgA8 Mmp20:g CK:9 424.599091 $poly  $L=1.38 $W=0.150000 $SI_W=0.15 $TYPE=10 $DIR=1 $LLX=2.550000 $LLY=1.975000 $URX=2.700000 $URY=3.355000 $lvl=3
RgA9 CK:9 CK:10 34.134449 $poly  $L=0.1645 $W=0.270000 $SI_W=0.27 $TYPE=10 $DIR=1 $LLX=2.490000 $LLY=1.810500 $URX=2.760000 $URY=1.975000 $lvl=3
RgA10 CK:10 Mmn20:g 386.447968 $poly  $L=1.2025 $W=0.150000 $SI_W=0.15 $TYPE=10 $DIR=1 $LLX=2.550000 $LLY=0.607500 $URX=2.700000 $URY=1.810000 $lvl=3
RgA11 Mmn20:g CK:11 116.483322 $poly  $L=0.3625 $W=0.150000 $SI_W=0.15 $TYPE=10 $DIR=1 $LLX=2.550000 $LLY=0.245000 $URX=2.700000 $URY=0.607500 $lvl=3
RjA12 CK:14 CK:17 152.000000 $mcon  $L=0.17 $W=0.17 $A=0.0289 $VC=0 $SAVL=0 $SAVC=0 $SI_A=0.0289 $COVER_DIR=0 $LLX=0.000000 $LLY=0.000000 $URX=0.170000 $URY=0.170000 $lvl=6
RiA13 CK:9 CK:13 15.000000 $licon  $L=0.17 $W=0.17 $A=0.0289 $VC=0 $SAVL=0 $SAVC=0 $SI_A=0.0289 $COVER_DIR=0 $LLX=0.000000 $LLY=0.000000 $URX=0.170000 $URY=0.170000 $lvl=7
*
*|NET n20 3.50071e-15
*|I (Mmp36:d Mmp36 d X 0 8.1305 3.3550) // $llx=8.1305 $lly=3.3550 $urx=8.1305 $ury=3.3550 $lvl=4
*|I (Mmp32:g Mmp32 g X 0 6.7650 3.3550) // $llx=6.7650 $lly=3.3550 $urx=6.7650 $ury=3.3550 $lvl=3
*|I (Mmp25:d Mmp25 d X 0 5.0305 3.3550) // $llx=5.0305 $lly=3.3550 $urx=5.0305 $ury=3.3550 $lvl=4
*|I (Mmn32:g Mmn32 g X 0 6.3350 0.6075) // $llx=6.3350 $lly=0.6075 $urx=6.3350 $ury=0.6075 $lvl=3
*|I (Mmn25:s Mmn25 s X 0 5.0305 0.6075) // $llx=5.0305 $lly=0.6075 $urx=5.0305 $ury=0.6075 $lvl=4
*|I (Mmn36:d Mmn36 d X 0 8.2205 0.6075) // $llx=8.2205 $lly=0.6075 $urx=8.2205 $ury=0.6075 $lvl=4
*|S (n20 6.3350 0.6075) // $llx=6.3350 $lly=0.6075 $urx=6.3350 $ury=0.6075 $lvl=3
*|S (n20:8 6.7650 3.8950) // $llx=6.7650 $lly=3.8950 $urx=6.7650 $ury=3.8950 $lvl=3
*|S (n20:9 6.7050 1.9395) // $llx=6.7050 $lly=1.9395 $urx=6.7050 $ury=1.9395 $lvl=3
*|S (n20:10 6.7050 1.7750) // $llx=6.7050 $lly=1.7750 $urx=6.7050 $ury=1.7750 $lvl=3
*|S (n20:11 6.5700 1.6850) // $llx=6.5700 $lly=1.6850 $urx=6.5700 $ury=1.6850 $lvl=3
*|S (n20:12 6.3350 1.6850) // $llx=6.3350 $lly=1.6850 $urx=6.3350 $ury=1.6850 $lvl=3
*|S (n20:13 6.3350 0.2450) // $llx=6.3350 $lly=0.2450 $urx=6.3350 $ury=0.2450 $lvl=3
*|S (n20:14 5.1700 3.7450) // $llx=5.1700 $lly=3.7450 $urx=5.1700 $ury=3.7450 $lvl=2
*|S (n20:16 5.1700 3.3550) // $llx=5.1700 $lly=3.3550 $urx=5.1700 $ury=3.3550 $lvl=2
*|S (n20:17 5.1700 3.0900) // $llx=5.1700 $lly=3.0900 $urx=5.1700 $ury=3.0900 $lvl=2
*|S (n20:18 5.1700 0.8200) // $llx=5.1700 $lly=0.8200 $urx=5.1700 $ury=0.8200 $lvl=2
*|S (n20:19 5.1700 0.6550) // $llx=5.1700 $lly=0.6550 $urx=5.1700 $ury=0.6550 $lvl=2
*|S (n20:21 5.1700 0.6050) // $llx=5.1700 $lly=0.6050 $urx=5.1700 $ury=0.6050 $lvl=2
*|S (n20:22 5.1700 0.3950) // $llx=5.1700 $lly=0.3950 $urx=5.1700 $ury=0.3950 $lvl=2
*|S (n20:23 8.2700 3.7450) // $llx=8.2700 $lly=3.7450 $urx=8.2700 $ury=3.7450 $lvl=2
*|S (n20:25 8.2700 3.3550) // $llx=8.2700 $lly=3.3550 $urx=8.2700 $ury=3.3550 $lvl=2
*|S (n20:26 8.2700 3.0900) // $llx=8.2700 $lly=3.0900 $urx=8.2700 $ury=3.0900 $lvl=2
*|S (n20:27 8.3600 0.8200) // $llx=8.3600 $lly=0.8200 $urx=8.3600 $ury=0.8200 $lvl=2
*|S (n20:28 8.3600 0.6550) // $llx=8.3600 $lly=0.6550 $urx=8.3600 $ury=0.6550 $lvl=2
*|S (n20:30 8.3600 0.6050) // $llx=8.3600 $lly=0.6050 $urx=8.3600 $ury=0.6050 $lvl=2
*|S (n20:31 8.3600 0.3950) // $llx=8.3600 $lly=0.3950 $urx=8.3600 $ury=0.3950 $lvl=2
*|S (n20:32 8.5250 1.7750) // $llx=8.5250 $lly=1.7750 $urx=8.5250 $ury=1.7750 $lvl=2
*|S (n20:33 8.3600 1.7750) // $llx=8.3600 $lly=1.7750 $urx=8.3600 $ury=1.7750 $lvl=2
*|S (n20:34 6.7050 1.7750) // $llx=6.7050 $lly=1.7750 $urx=6.7050 $ury=1.7750 $lvl=2
*|S (n20:35 5.1350 1.7750) // $llx=5.1350 $lly=1.7750 $urx=5.1350 $ury=1.7750 $lvl=2
*|S (n20:36 4.9700 1.7750) // $llx=4.9700 $lly=1.7750 $urx=4.9700 $ury=1.7750 $lvl=2
*|S (n20:37 5.1700 0.5100) // $llx=5.1700 $lly=0.5100 $urx=5.1700 $ury=0.5100 $lvl=1
*|S (n20:38 5.1700 0.6550) // $llx=5.1700 $lly=0.6550 $urx=5.1700 $ury=0.6550 $lvl=1
*|S (n20:39 5.1350 1.7750) // $llx=5.1350 $lly=1.7750 $urx=5.1350 $ury=1.7750 $lvl=1
*|S (n20:40 5.1525 2.9450) // $llx=5.1525 $lly=2.9450 $urx=5.1525 $ury=2.9450 $lvl=1
*|S (n20:41 5.1700 3.0900) // $llx=5.1700 $lly=3.0900 $urx=5.1700 $ury=3.0900 $lvl=1
*|S (n20:42 8.2700 3.0900) // $llx=8.2700 $lly=3.0900 $urx=8.2700 $ury=3.0900 $lvl=1
*|S (n20:43 8.3150 2.9450) // $llx=8.3150 $lly=2.9450 $urx=8.3150 $ury=2.9450 $lvl=1
*|S (n20:44 8.3600 1.7750) // $llx=8.3600 $lly=1.7750 $urx=8.3600 $ury=1.7750 $lvl=1
*|S (n20:45 8.3600 0.6550) // $llx=8.3600 $lly=0.6550 $urx=8.3600 $ury=0.6550 $lvl=1
*|S (n20:46 8.3600 0.5100) // $llx=8.3600 $lly=0.5100 $urx=8.3600 $ury=0.5100 $lvl=1
CO1 Mmn36:d VSS! 1.61753e-18 $lvl=4
CO2 Mmn25:s VSS! 3.22831e-18 $lvl=4
CO3 Mmp25:d VSS! 3.41679e-18 $lvl=4
CO4 Mmp36:d VSS! 1.95881e-18 $lvl=4
CO5 n20:44 VSS! 1.73021e-17 $lvl=1
CO6 n20:42 VSS! 6.70429e-18 $lvl=1
CO7 n20:43 VSS! 8.10998e-18 $lvl=1
CO8 n20:46 VSS! 1.11192e-17 $lvl=1
CO9 n20:40 VSS! 9.86689e-18 $lvl=1
CO10 n20:39 VSS! 8.50181e-18 $lvl=1
CO11 n20:37 VSS! 7.96896e-18 $lvl=1
CO12 n20:8 VSS! 1.82973e-18 $lvl=3
CO13 n20:34 VSS! 1.54001e-17 $lvl=2
CO14 n20:32 VSS! 1.67715e-17 $lvl=2
CO15 n20:36 VSS! 1.16605e-17 $lvl=2
CO16 n20:27 VSS! 9.90451e-18 $lvl=2
CO17 n20:31 VSS! 2.33068e-18 $lvl=2
CO18 n20:23 VSS! 4.23674e-18 $lvl=2
CO19 n20:21 VSS! 1.1525e-17 $lvl=2
CO20 n20:22 VSS! 2.96977e-18 $lvl=2
CO21 n20:14 VSS! 5.40643e-18 $lvl=2
CO22 n20:35 VSS! 3.3207e-18 $lvl=2
CO23 n20:19 VSS! 6.25405e-18 $lvl=2
CO24 n20:17 VSS! 2.58173e-18 $lvl=2
CO25 n20:26 VSS! 2.13142e-18 $lvl=2
CO26 n20:28 VSS! 3.26099e-18 $lvl=2
CO27 n20:33 VSS! 4.20331e-18 $lvl=2
CO28 n20:10 VSS! 2.22405e-17 $lvl=3
CO29 n20 VSS! 2.65302e-18 $lvl=3
CO30 n20:37 n4:12 2.66355e-18 $lvl1=1 $lvl2=1
CO31 n20:46 n4:9 1.73823e-18 $lvl1=1 $lvl2=1
CO32 n20:44 n4:9 1.18912e-18 $lvl1=1 $lvl2=1
CO33 n20:39 n4:12 5.66267e-19 $lvl1=1 $lvl2=1
CO34 n20:19 n4:12 4.67217e-19 $lvl1=2 $lvl2=1
CO35 n20 n4:5 4.18582e-19 $lvl1=3 $lvl2=2
CO36 n20:44 n4:12 4.05104e-19 $lvl1=1 $lvl2=1
CO37 n20:10 n4:5 3.58177e-19 $lvl1=3 $lvl2=2
CO38 n20:37 n4:4 3.51488e-19 $lvl1=1 $lvl2=2
CO39 n20:46 n4:12 3.46877e-19 $lvl1=1 $lvl2=1
CO40 n20:46 n4:8 3.0613e-19 $lvl1=1 $lvl2=2
CO41 n20:37 n4 3.04304e-19 $lvl1=1 $lvl2=2
CO42 n20:46 n4:5 2.5035e-19 $lvl1=1 $lvl2=2
CO43 n20:43 n4:9 2.29554e-19 $lvl1=1 $lvl2=1
CO44 n20 n4 6.4902e-17 $lvl1=3 $lvl2=2
CO45 n20:28 n6 1.34132e-18 $lvl1=2 $lvl2=2
CO46 n20:28 n6:4 9.12777e-19 $lvl1=2 $lvl2=2
CO47 n20:46 n6:4 8.28075e-19 $lvl1=1 $lvl2=2
CO48 n20:27 Mmn35:d 4.86197e-19 $lvl1=2 $lvl2=4
CO49 n20:44 n6 3.25164e-19 $lvl1=1 $lvl2=2
CO50 n20:44 n6:3 3.2444e-19 $lvl1=1 $lvl2=2
CO51 n20:43 n7:3 1.25411e-18 $lvl1=1 $lvl2=2
CO52 n20:23 Mmp36:s 1.02708e-18 $lvl1=2 $lvl2=4
CO53 n20:42 n7:4 8.30399e-19 $lvl1=1 $lvl2=2
CO54 n20:44 n7:4 4.18479e-19 $lvl1=1 $lvl2=2
CO55 n20:26 n7 3.17047e-19 $lvl1=2 $lvl2=2
CO56 n20:23 n7:3 2.78088e-17 $lvl1=2 $lvl2=2
CO57 n20:27 n6 2.87425e-18 $lvl1=2 $lvl2=2
CO58 n20:46 n6 1.48858e-18 $lvl1=1 $lvl2=2
CO59 n20:27 n6:4 1.36471e-18 $lvl1=2 $lvl2=2
CO60 n20:23 n7 9.26211e-18 $lvl1=2 $lvl2=2
CO61 n20:28 n6:3 4.59236e-18 $lvl1=2 $lvl2=2
CO62 n20:27 n6:3 1.4508e-17 $lvl1=2 $lvl2=2
CO63 n20:26 n7:4 1.68584e-18 $lvl1=2 $lvl2=2
CO64 n20:31 n6:4 2.16646e-18 $lvl1=2 $lvl2=2
CO65 n20:42 n7:3 1.67463e-18 $lvl1=1 $lvl2=2
CO66 n20:26 n7:3 2.99791e-18 $lvl1=2 $lvl2=2
CO67 n20:31 n6:3 3.21391e-18 $lvl1=2 $lvl2=2
CO68 n20:43 n7:4 1.91474e-18 $lvl1=1 $lvl2=2
CO69 n20:23 n7:4 6.11001e-18 $lvl1=2 $lvl2=2
CO70 n20:46 n6:3 3.24337e-18 $lvl1=1 $lvl2=2
CO71 n20:8 n5:4 1.10168e-18 $lvl1=3 $lvl2=2
CO72 n20:8 n5 1.52051e-18 $lvl1=3 $lvl2=2
CO73 n20:8 n5:3 6.79254e-17 $lvl1=3 $lvl2=2
CO74 n20:46 mout:32 8.80523e-18 $lvl1=1 $lvl2=2
CO75 n20:46 mout:30 7.4863e-18 $lvl1=1 $lvl2=2
CO76 n20:27 mout:32 7.3984e-18 $lvl1=2 $lvl2=2
CO77 n20:34 mout:38 4.20228e-18 $lvl1=2 $lvl2=1
CO78 n20:44 mout:32 4.11625e-18 $lvl1=1 $lvl2=2
CO79 n20:44 mout:41 3.96484e-18 $lvl1=1 $lvl2=1
CO80 n20:23 Mmp40:s 3.77881e-18 $lvl1=2 $lvl2=4
CO81 Mmp36:d mout:21 3.76681e-18 $lvl1=4 $lvl2=2
CO82 n20:33 mout:44 3.20483e-18 $lvl1=2 $lvl2=1
CO83 n20:28 mout:30 2.86012e-18 $lvl1=2 $lvl2=2
CO84 n20:28 mout:26 2.7879e-18 $lvl1=2 $lvl2=2
CO85 n20:44 mout:30 2.64436e-18 $lvl1=1 $lvl2=2
CO86 n20:42 mout:24 2.23595e-18 $lvl1=1 $lvl2=2
CO87 n20:46 mout:26 2.20634e-18 $lvl1=1 $lvl2=2
CO88 n20:28 mout:32 2.12844e-18 $lvl1=2 $lvl2=2
CO89 Mmn36:d mout:25 2.11672e-18 $lvl1=4 $lvl2=2
CO90 n20:27 mout:26 2.10372e-18 $lvl1=2 $lvl2=2
CO91 n20:32 mout:32 2.08204e-18 $lvl1=2 $lvl2=2
CO92 n20:27 Mmn40:s 2.00548e-18 $lvl1=2 $lvl2=4
CO93 n20:32 mout:44 1.9892e-18 $lvl1=2 $lvl2=1
CO94 n20:46 mout:41 1.97275e-18 $lvl1=1 $lvl2=1
CO95 n20 mout:33 1.95848e-18 $lvl1=3 $lvl2=2
CO96 n20:44 mout:38 1.94735e-18 $lvl1=1 $lvl2=1
CO97 n20:23 mout:8 1.85786e-18 $lvl1=2 $lvl2=3
CO98 n20:34 mout:33 1.80148e-18 $lvl1=2 $lvl2=2
CO99 n20:46 mout:31 1.80073e-18 $lvl1=1 $lvl2=2
CO100 n20:28 mout:25 1.75997e-18 $lvl1=2 $lvl2=2
CO101 n20:43 mout:24 1.63869e-18 $lvl1=1 $lvl2=2
CO102 n20:27 mout:29 1.58933e-18 $lvl1=2 $lvl2=2
CO103 n20:32 mout:13 1.57682e-18 $lvl1=2 $lvl2=3
CO104 n20:23 mout:24 1.56382e-18 $lvl1=2 $lvl2=2
CO105 n20:34 mout:32 1.55383e-18 $lvl1=2 $lvl2=2
CO106 n20:31 mout:29 1.55136e-18 $lvl1=2 $lvl2=2
CO107 n20:31 mout:25 1.53649e-18 $lvl1=2 $lvl2=2
CO108 n20:10 mout:33 1.5114e-18 $lvl1=3 $lvl2=2
CO109 n20:42 mout:21 1.51108e-18 $lvl1=1 $lvl2=2
CO110 n20:36 mout:41 1.45823e-18 $lvl1=2 $lvl2=1
CO111 n20:43 mout:21 1.41245e-18 $lvl1=1 $lvl2=2
CO112 n20:43 mout:38 1.40888e-18 $lvl1=1 $lvl2=1
CO113 n20:43 mout:44 1.31276e-18 $lvl1=1 $lvl2=1
CO114 n20:37 mout:41 1.29092e-18 $lvl1=1 $lvl2=1
CO115 n20:23 mout:42 1.26971e-18 $lvl1=2 $lvl2=1
CO116 n20:39 mout:41 1.26457e-18 $lvl1=1 $lvl2=1
CO117 n20:40 mout:38 1.18921e-18 $lvl1=1 $lvl2=1
CO118 n20:43 mout:41 1.16724e-18 $lvl1=1 $lvl2=1
CO119 n20:34 mout:13 1.13474e-18 $lvl1=2 $lvl2=3
CO120 n20:26 mout:24 1.07885e-18 $lvl1=2 $lvl2=2
CO121 n20:26 mout:21 1.06306e-18 $lvl1=2 $lvl2=2
CO122 n20:31 mout:26 1.05054e-18 $lvl1=2 $lvl2=2
CO123 n20:44 mout:46 1.03726e-18 $lvl1=1 $lvl2=1
CO124 n20:32 mout:41 9.51563e-19 $lvl1=2 $lvl2=1
CO125 n20:40 mout:41 8.7394e-19 $lvl1=1 $lvl2=1
CO126 n20:42 mout:38 8.73469e-19 $lvl1=1 $lvl2=1
CO127 n20:28 mout:46 8.52329e-19 $lvl1=2 $lvl2=1
CO128 n20:28 mout:29 8.37059e-19 $lvl1=2 $lvl2=2
CO129 n20:26 mout:42 8.24573e-19 $lvl1=2 $lvl2=1
CO130 n20:32 mout:30 7.83553e-19 $lvl1=2 $lvl2=2
CO131 n20:44 mout:31 7.50418e-19 $lvl1=1 $lvl2=2
CO132 n20:10 mout:13 7.37704e-19 $lvl1=3 $lvl2=3
CO133 n20:39 mout:38 7.35233e-19 $lvl1=1 $lvl2=1
CO134 Mmn36:d mout:30 7.27237e-19 $lvl1=4 $lvl2=2
CO135 n20:27 mout:13 7.05186e-19 $lvl1=2 $lvl2=3
CO136 n20:46 mout:38 6.88314e-19 $lvl1=1 $lvl2=1
CO137 n20:27 mout:31 6.26146e-19 $lvl1=2 $lvl2=2
CO138 n20:32 mout:38 5.98585e-19 $lvl1=2 $lvl2=1
CO139 n20:46 mout:25 5.87722e-19 $lvl1=1 $lvl2=2
CO140 n20 mout:37 6.87584e-17 $lvl1=3 $lvl2=2
CO141 n20:46 mout:44 2.24299e-17 $lvl1=1 $lvl2=1
CO142 n20:27 mout:30 1.6627e-17 $lvl1=2 $lvl2=2
CO143 n20:27 mout:25 1.35268e-17 $lvl1=2 $lvl2=2
CO144 n20:8 mout:17 1.31132e-16 $lvl1=3 $lvl2=2
CO145 n20:44 mout:42 2.38949e-17 $lvl1=1 $lvl2=1
CO146 n20:44 mout:44 5.44166e-17 $lvl1=1 $lvl2=1
CO147 n20:34 mout:41 2.46391e-17 $lvl1=2 $lvl2=1
CO148 n20:42 mout:42 1.41157e-17 $lvl1=1 $lvl2=1
CO149 n20:23 mout:21 3.19801e-17 $lvl1=2 $lvl2=2
CO150 n20:43 mout:42 3.68805e-17 $lvl1=1 $lvl2=1
CO151 n20:46 mout:46 2.28136e-17 $lvl1=1 $lvl2=1
CO152 n20:21 VSS!:17 9.43145e-18 $lvl1=2 $lvl2=2
CO153 n20:27 VSS!:16 9.42063e-18 $lvl1=2 $lvl2=2
CO154 n20 VSS!:17 8.24425e-18 $lvl1=3 $lvl2=2
CO155 n20:19 VSS!:44 5.36075e-18 $lvl1=2 $lvl2=2
CO156 n20:22 VSS!:44 3.79507e-18 $lvl1=2 $lvl2=2
CO157 n20:44 VSS!:59 2.92254e-18 $lvl1=1 $lvl2=1
CO158 Mmn25:s VSS!:17 2.78832e-18 $lvl1=4 $lvl2=2
CO159 n20:46 VSS!:16 2.76034e-18 $lvl1=1 $lvl2=2
CO160 n20:37 VSS!:44 2.62017e-18 $lvl1=1 $lvl2=2
CO161 n20:19 VSS!:60 2.57313e-18 $lvl1=2 $lvl2=1
CO162 Mmn36:d VSS!:16 2.5519e-18 $lvl1=4 $lvl2=2
CO163 n20:31 VSS!:14 2.48755e-18 $lvl1=2 $lvl2=2
CO164 n20:46 VSS!:14 2.42773e-18 $lvl1=1 $lvl2=2
CO165 n20:22 VSS!:60 2.40005e-18 $lvl1=2 $lvl2=1
CO166 n20:21 Mmn30:s 2.2087e-18 $lvl1=2 $lvl2=4
CO167 n20:19 VSS!:17 2.18857e-18 $lvl1=2 $lvl2=2
CO168 n20:31 VSS!:59 2.11964e-18 $lvl1=2 $lvl2=1
CO169 n20:28 VSS!:16 1.99202e-18 $lvl1=2 $lvl2=2
CO170 n20:37 VSS!:17 1.93578e-18 $lvl1=1 $lvl2=2
CO171 n20:28 VSS!:59 1.83346e-18 $lvl1=2 $lvl2=1
CO172 n20:22 VSS!:18 1.76058e-18 $lvl1=2 $lvl2=2
CO173 n20:39 VSS!:60 1.67481e-18 $lvl1=1 $lvl2=1
CO174 n20:37 VSS!:18 1.65841e-18 $lvl1=1 $lvl2=2
CO175 n20:27 VSS!:7 1.64706e-18 $lvl1=2 $lvl2=4
CO176 n20:21 VSS!:7 1.61719e-18 $lvl1=2 $lvl2=4
CO177 n20:46 VSS!:60 1.45935e-18 $lvl1=1 $lvl2=1
CO178 n20:46 VSS!:41 1.4391e-18 $lvl1=1 $lvl2=2
CO179 n20:22 VSS!:17 1.27299e-17 $lvl1=2 $lvl2=2
CO180 n20:21 VSS!:44 1.69691e-17 $lvl1=2 $lvl2=2
CO181 n20:37 VSS!:60 3.31869e-17 $lvl1=1 $lvl2=1
CO182 n20:46 VSS!:59 4.04558e-17 $lvl1=1 $lvl2=1
CO183 n20:31 VSS!:16 1.36197e-17 $lvl1=2 $lvl2=2