*
*|DSPF 1.5
*
*|DATE "Wed Jan  8 19:00:11 2025"
*|VENDOR "Cadence Design Systems"
*|PROGRAM "Cadence Quantus Extraction"
*|VERSION "22.1.0-p089 Linux 64 bit - (Thu Jan 19 11:47:08 PST 2023)"
*|DESIGN SDFFX1_HS
*|DIVIDER /
*|DELIMITER :
*|DeviceFingerDelim "@"
*|BUSBIT []
*|GLOBAL_TEMPERATURE 25
*|OPERATING_TEMPERATURE 25

** *VIA_COVERAGE_CODES
** *index FF FS FP FU SF SS SP SU PF PS PP PU UF US UP UU X_by_Y
** * "FF" stands for Full landing and Full coverage
** *0 0 0 0 0 0 0 0 0 0 0 0 0 0 0 0 0
** *1 0 0 0 0 0 0 0 0 0 0 0 0 0 0 0 1 1x1
** *2 0 0 0 0 0 0 0 0 0 0 0 0 0 0 1 0 1x1
** *3 0 0 0 0 0 0 0 0 0 0 0 0 0 1 0 0 1x1
** *4 0 0 0 0 0 0 0 0 0 0 0 0 1 0 0 0 1x1
** *5 0 0 0 0 0 0 0 0 0 0 0 1 0 0 0 0 1x1
** *6 0 0 0 0 0 0 0 0 0 0 1 0 0 0 0 0 1x1
** *7 0 0 0 0 0 0 0 0 0 1 0 0 0 0 0 0 1x1
** *8 0 0 0 0 0 0 0 0 1 0 0 0 0 0 0 0 1x1
** *9 0 0 0 0 0 0 0 1 0 0 0 0 0 0 0 0 1x1
** *10 0 0 0 0 0 0 1 0 0 0 0 0 0 0 0 0 1x1
** *11 0 0 0 0 0 1 0 0 0 0 0 0 0 0 0 0 1x1
** *12 0 0 0 0 1 0 0 0 0 0 0 0 0 0 0 0 1x1
** *13 0 0 0 1 0 0 0 0 0 0 0 0 0 0 0 0 1x1
** *14 0 0 1 0 0 0 0 0 0 0 0 0 0 0 0 0 1x1
** *15 0 1 0 0 0 0 0 0 0 0 0 0 0 0 0 0 1x1
** *16 1 0 0 0 0 0 0 0 0 0 0 0 0 0 0 0 1x1

** *RESISTOR_TYPES
** *1 SHORTING_ELEMENT
** *2 PRES_NG
** *3 PRES_PG
** *4 PRES_NF
** *5 PRES_PF
** *6 TCN_NDIFF
** *7 TCN_PDIFF
** *8 TCN_NFIELD
** *9 TCN_PFIELD
** *10 QUALITY_EXTRACTED
** *11 GCNLAND
** *12 TCNLAND
** *13 DUMMY
** *14 RSD
** *15 BRIDGE

** *RESISTOR_CURRENT_DIRECTION
** *0 HORIZONTAL
** *1 VERTICAL
** *2 45 DEGREE

** QRC_TECH_DIR /vols/wfo_devel/projects/reference_SKY130/tech/sky130_release_0.0.4/quantus/extraction/typical 
** HIERARCHICAL_SPLIT_PINS_DELIMITER '%'
** caps2d version: 10
*
.SUBCKT  SDFFX1_HS CK D Q QN SE SI
*
*Net Section
*
*|GROUND_NET VSS!
*
*LAYER_MAP
*0 none
*1 metal1
*2 li
*3 poly
*4 diff
*5 licon_diff
*6 mcon
*7 licon
*8 FOX

*|NET net367 2.3376e-15
*|I (Mmp57:g Mmp57 g X 0 9.8650 3.0150) // $llx=9.8650 $lly=3.0150 $urx=9.8650 $ury=3.0150 $lvl=3
*|I (Mmp56:d Mmp56 d X 0 7.9795 3.3550) // $llx=7.9795 $lly=3.3550 $urx=7.9795 $ury=3.3550 $lvl=4
*|I (Mmn56:d Mmn56 d X 0 7.9795 0.6075) // $llx=7.9795 $lly=0.6075 $urx=7.9795 $ury=0.6075 $lvl=4
*|I (Mmn57:g Mmn57 g X 0 9.8650 0.7750) // $llx=9.8650 $lly=0.7750 $urx=9.8650 $ury=0.7750 $lvl=3
*|S (net367 9.8650 0.7750) // $llx=9.8650 $lly=0.7750 $urx=9.8650 $ury=0.7750 $lvl=3
*|S (net367:8 9.8650 3.8950) // $llx=9.8650 $lly=3.8950 $urx=9.8650 $ury=3.8950 $lvl=3
*|S (net367:9 9.9550 1.5800) // $llx=9.9550 $lly=1.5800 $urx=9.9550 $ury=1.5800 $lvl=3
*|S (net367:10 9.8650 1.4450) // $llx=9.8650 $lly=1.4450 $urx=9.8650 $ury=1.4450 $lvl=3
*|S (net367:11 9.8650 0.2450) // $llx=9.8650 $lly=0.2450 $urx=9.8650 $ury=0.2450 $lvl=3
*|S (net367:12 7.8400 3.7450) // $llx=7.8400 $lly=3.7450 $urx=7.8400 $ury=3.7450 $lvl=2
*|S (net367:14 7.8400 3.3550) // $llx=7.8400 $lly=3.3550 $urx=7.8400 $ury=3.3550 $lvl=2
*|S (net367:15 7.8400 2.8300) // $llx=7.8400 $lly=2.8300 $urx=7.8400 $ury=2.8300 $lvl=2
*|S (net367:16 7.8400 2.4850) // $llx=7.8400 $lly=2.4850 $urx=7.8400 $ury=2.4850 $lvl=2
*|S (net367:17 7.8400 1.1550) // $llx=7.8400 $lly=1.1550 $urx=7.8400 $ury=1.1550 $lvl=2
*|S (net367:18 7.8400 0.8100) // $llx=7.8400 $lly=0.8100 $urx=7.8400 $ury=0.8100 $lvl=2
*|S (net367:20 7.8400 0.6050) // $llx=7.8400 $lly=0.6050 $urx=7.8400 $ury=0.6050 $lvl=2
*|S (net367:21 7.8400 0.3950) // $llx=7.8400 $lly=0.3950 $urx=7.8400 $ury=0.3950 $lvl=2
*|S (net367:22 7.6750 1.7750) // $llx=7.6750 $lly=1.7750 $urx=7.6750 $ury=1.7750 $lvl=2
*|S (net367:23 7.8400 1.7750) // $llx=7.8400 $lly=1.7750 $urx=7.8400 $ury=1.7750 $lvl=2
*|S (net367:24 9.9550 1.7750) // $llx=9.9550 $lly=1.7750 $urx=9.9550 $ury=1.7750 $lvl=2
*|S (net367:25 9.9550 1.5800) // $llx=9.9550 $lly=1.5800 $urx=9.9550 $ury=1.5800 $lvl=2
*|S (net367:26 9.9550 1.3950) // $llx=9.9550 $lly=1.3950 $urx=9.9550 $ury=1.3950 $lvl=2
*|S (net367:27 7.8400 3.3350) // $llx=7.8400 $lly=3.3350 $urx=7.8400 $ury=3.3350 $lvl=1
*|S (net367:28 7.8400 2.8300) // $llx=7.8400 $lly=2.8300 $urx=7.8400 $ury=2.8300 $lvl=1
*|S (net367:29 7.8400 1.7750) // $llx=7.8400 $lly=1.7750 $urx=7.8400 $ury=1.7750 $lvl=1
*|S (net367:30 7.8400 0.8100) // $llx=7.8400 $lly=0.8100 $urx=7.8400 $ury=0.8100 $lvl=1
*|S (net367:31 7.8400 0.4850) // $llx=7.8400 $lly=0.4850 $urx=7.8400 $ury=0.4850 $lvl=1
CQ1 Mmn56:d VSS! 1.69218e-18 $lvl=4
CQ2 Mmp56:d VSS! 1.74992e-18 $lvl=4
CQ3 net367:30 VSS! 9.72505e-18 $lvl=1
CQ4 net367:29 VSS! 9.87204e-18 $lvl=1
CQ5 net367:28 VSS! 1.19948e-17 $lvl=1
CQ6 net367:27 VSS! 6.92384e-18 $lvl=1
CQ7 net367:31 VSS! 3.8917e-18 $lvl=1
CQ8 net367:8 VSS! 1.73764e-18 $lvl=3
CQ9 net367:25 VSS! 2.33379e-18 $lvl=2
CQ10 net367:22 VSS! 1.43499e-17 $lvl=2
CQ11 net367:24 VSS! 8.78804e-18 $lvl=2
CQ12 net367:17 VSS! 1.15135e-17 $lvl=2
CQ13 net367:21 VSS! 1.27562e-18 $lvl=2
CQ14 net367:12 VSS! 4.60604e-18 $lvl=2
CQ15 net367:16 VSS! 4.13943e-18 $lvl=2
CQ16 net367:18 VSS! 4.05016e-18 $lvl=2
CQ17 net367:23 VSS! 2.24044e-18 $lvl=2
CQ18 net367:15 VSS! 6.21872e-18 $lvl=2
CQ19 net367:9 VSS! 1.94427e-17 $lvl=3
CQ20 net367 VSS! 1.76144e-18 $lvl=3
CQ21 net367:17 VSS!:9 8.67434e-18 $lvl1=2 $lvl2=2
CQ22 net367 VSS!:8 8.39281e-18 $lvl1=3 $lvl2=2
CQ23 net367:21 VSS!:9 7.6935e-18 $lvl1=2 $lvl2=2
CQ24 net367:18 VSS!:23 6.7262e-18 $lvl1=2 $lvl2=2
CQ25 net367:30 VSS!:23 6.4396e-18 $lvl1=1 $lvl2=2
CQ26 net367:21 VSS!:8 6.13001e-18 $lvl1=2 $lvl2=2
CQ27 net367:30 VSS!:20 5.72283e-18 $lvl1=1 $lvl2=2
CQ28 net367:25 VSS!:3 4.86283e-18 $lvl1=2 $lvl2=2
CQ29 net367:21 VSS!:20 4.73719e-18 $lvl1=2 $lvl2=2
CQ30 net367:30 VSS!:38 3.46502e-18 $lvl1=1 $lvl2=1
CQ31 net367:21 VSS!:23 3.43051e-18 $lvl1=2 $lvl2=2
CQ32 net367:18 VSS!:37 3.33476e-18 $lvl1=2 $lvl2=1
CQ33 net367:17 VSS!:8 3.00733e-18 $lvl1=2 $lvl2=2
CQ34 net367:9 VSS!:3 2.95113e-18 $lvl1=3 $lvl2=2
CQ35 Mmn56:d VSS!:9 2.93058e-18 $lvl1=4 $lvl2=2
CQ36 net367:17 Mmn50:s 2.68942e-18 $lvl1=2 $lvl2=4
CQ37 net367:21 VSS!:5 2.59361e-18 $lvl1=2 $lvl2=2
CQ38 Mmn56:d VSS!:23 2.41549e-18 $lvl1=4 $lvl2=2
CQ39 net367:29 VSS!:37 2.22399e-18 $lvl1=1 $lvl2=1
CQ40 net367:21 VSS!:37 1.8281e-18 $lvl1=2 $lvl2=1
CQ41 net367:18 VSS!:9 1.55775e-18 $lvl1=2 $lvl2=2
CQ42 net367:18 VSS!:8 1.49858e-18 $lvl1=2 $lvl2=2
CQ43 net367:18 VSS!:5 1.4475e-18 $lvl1=2 $lvl2=2
CQ44 net367:31 VSS!:20 1.34686e-18 $lvl1=1 $lvl2=2
CQ45 net367:24 VSS!:3 1.28899e-18 $lvl1=2 $lvl2=2
CQ46 net367:17 VSS!:6 1.26986e-18 $lvl1=2 $lvl2=4
CQ47 net367:31 VSS!:5 1.24948e-18 $lvl1=1 $lvl2=2
CQ48 net367:30 VSS!:9 1.20519e-18 $lvl1=1 $lvl2=2
CQ49 net367:31 VSS!:23 1.13165e-18 $lvl1=1 $lvl2=2
CQ50 net367:29 VSS!:38 1.12438e-18 $lvl1=1 $lvl2=1
CQ51 net367:30 VSS!:5 8.79648e-19 $lvl1=1 $lvl2=2
CQ52 net367:28 VSS!:38 8.43406e-19 $lvl1=1 $lvl2=1
CQ53 net367:31 VSS!:9 7.87707e-19 $lvl1=1 $lvl2=2
CQ54 net367:30 VSS!:8 7.80524e-19 $lvl1=1 $lvl2=2
CQ55 net367:30 VSS!:37 2.45248e-17 $lvl1=1 $lvl2=1
CQ56 net367:31 VSS!:37 2.19361e-17 $lvl1=1 $lvl2=1
CQ57 net367 VSS!:3 1.28674e-16 $lvl1=3 $lvl2=2
CQ58 net367:18 VSS!:20 1.01137e-17 $lvl1=2 $lvl2=2
CQ59 net367:17 VSS!:20 2.29988e-17 $lvl1=2 $lvl2=2
CQ60 net367:17 VSS!:23 2.02212e-17 $lvl1=2 $lvl2=2
ReQ486 net367:27 net367:28 0.274457 $metal1  $L=0.505 $W=0.230000 $SI_W=0.23 $TYPE=10 $DIR=1 $LLX=7.725000 $LLY=2.830000 $URX=7.955000 $URY=3.335000 $lvl=1
ReQ487 net367:28 net367:29 0.573370 $metal1  $L=1.055 $W=0.230000 $SI_W=0.23 $TYPE=10 $DIR=1 $LLX=7.725000 $LLY=1.775000 $URX=7.955000 $URY=2.830000 $lvl=1
ReQ488 net367:29 net367:30 0.524457 $metal1  $L=0.965 $W=0.230000 $SI_W=0.23 $TYPE=10 $DIR=1 $LLX=7.725000 $LLY=0.810000 $URX=7.955000 $URY=1.775000 $lvl=1
ReQ489 net367:30 net367:31 0.176630 $metal1  $L=0.325 $W=0.230000 $SI_W=0.23 $TYPE=10 $DIR=1 $LLX=7.725000 $LLY=0.485000 $URX=7.955000 $URY=0.810000 $lvl=1
RfQ490 net367:12 net367:14 29.364706 $li  $L=0.39 $W=0.170000 $SI_W=0.17 $TYPE=10 $DIR=1 $LLX=7.755000 $LLY=3.355000 $URX=7.925000 $URY=3.745000 $lvl=2
RfQ491 net367:14 net367:15 39.529411 $li  $L=0.525 $W=0.170000 $SI_W=0.17 $TYPE=10 $DIR=1 $LLX=7.755000 $LLY=2.830000 $URX=7.925000 $URY=3.355000 $lvl=2
RfQ492 net367:15 net367:16 25.976471 $li  $L=0.345 $W=0.170000 $SI_W=0.17 $TYPE=10 $DIR=1 $LLX=7.755000 $LLY=2.485000 $URX=7.925000 $URY=2.830000 $lvl=2
RfQ493 net367:17 net367:18 25.976471 $li  $L=0.345 $W=0.170000 $SI_W=0.17 $TYPE=10 $DIR=1 $LLX=7.755000 $LLY=0.810000 $URX=7.925000 $URY=1.155000 $lvl=2
RfQ494 net367:18 net367:20 15.435293 $li  $L=0.205 $W=0.170000 $SI_W=0.17 $TYPE=10 $DIR=1 $LLX=7.755000 $LLY=0.605000 $URX=7.925000 $URY=0.810000 $lvl=2
RfQ495 net367:20 net367:21 15.811765 $li  $L=0.21 $W=0.170000 $SI_W=0.17 $TYPE=10 $DIR=1 $LLX=7.755000 $LLY=0.395000 $URX=7.925000 $URY=0.605000 $lvl=2
RfQ496 net367:22 net367:23 12.423529 $li  $L=0.165 $W=0.170000 $SI_W=0.17 $TYPE=10 $DIR=0 $LLX=7.675000 $LLY=1.690000 $URX=7.840000 $URY=1.860000 $lvl=2
RfQ497 net367:23 net367:24 159.265884 $li  $L=2.11525 $W=0.170000 $SI_W=0.17 $TYPE=10 $DIR=0 $LLX=7.840000 $LLY=1.690000 $URX=9.955000 $URY=1.860000 $lvl=2
RfQ498 net367:24 net367:25 14.701177 $li  $L=0.19525 $W=0.170000 $SI_W=0.17 $TYPE=10 $DIR=1 $LLX=9.870000 $LLY=1.580000 $URX=10.040000 $URY=1.775000 $lvl=2
RfQ499 net367:25 net367:26 13.929413 $li  $L=0.185 $W=0.170000 $SI_W=0.17 $TYPE=10 $DIR=1 $LLX=9.870000 $LLY=1.395000 $URX=10.040000 $URY=1.580000 $lvl=2
RgQ500 net367:8 Mmp57:g 282.773346 $poly  $L=0.88 $W=0.150000 $SI_W=0.15 $TYPE=10 $DIR=1 $LLX=9.790000 $LLY=3.015000 $URX=9.940000 $URY=3.895000 $lvl=3
RgQ501 Mmp57:g net367:9 437.451508 $poly  $L=1.435 $W=0.150000 $SI_W=0.15 $TYPE=10 $DIR=1 $LLX=9.790000 $LLY=1.580000 $URX=9.940000 $URY=3.015000 $lvl=3
RgQ502 net367:9 net367:10 31.545456 $poly  $L=0.1345 $W=0.330000 $SI_W=0.33 $TYPE=10 $DIR=1 $LLX=9.790000 $LLY=1.445500 $URX=10.120000 $URY=1.580000 $lvl=3
RgQ503 net367:10 net367 215.329849 $poly  $L=0.67 $W=0.150000 $SI_W=0.15 $TYPE=10 $DIR=1 $LLX=9.790000 $LLY=0.775000 $URX=9.940000 $URY=1.445000 $lvl=3
RgQ504 net367 net367:11 170.306671 $poly  $L=0.53 $W=0.150000 $SI_W=0.15 $TYPE=10 $DIR=1 $LLX=9.790000 $LLY=0.245000 $URX=9.940000 $URY=0.775000 $lvl=3
RhQ505 Mmn56:d net367:20 15.000000 $licon_diff  $L=0.17 $W=0.17 $A=0.0289 $VC=0 $SAVL=0 $SAVC=0 $SI_A=0.0289 $COVER_DIR=0 $LLX=0.000000 $LLY=0.000000 $URX=0.170000 $URY=0.170000 $lvl=5
Rh_2_Q506 Mmp56:d net367:14 7.500000 $licon_diff  $A=0.0578 $VC=0 $SAVL=0 $SAVC=0 $SI_A=0.0578 $COVER_DIR=0 $LLX=0.000000 $LLY=0.000000 $URX=-0.057800 $URY=-2.000000 $lvl=5
RjQ507 net367:15 net367:28 76.000000 $mcon  $A=0.0578 $VC=0 $SAVL=0 $SAVC=0 $SI_A=0.0578 $COVER_DIR=0 $LLX=0.000000 $LLY=0.000000 $URX=-0.057800 $URY=-2.000000 $lvl=6
RjQ508 net367:23 net367:29 152.000000 $mcon  $L=0.17 $W=0.17 $A=0.0289 $VC=0 $SAVL=0 $SAVC=0 $SI_A=0.0289 $COVER_DIR=0 $LLX=0.000000 $LLY=0.000000 $URX=0.170000 $URY=0.170000 $lvl=6
RjQ509 net367:18 net367:30 76.000000 $mcon  $A=0.0578 $VC=0 $SAVL=0 $SAVC=0 $SI_A=0.0578 $COVER_DIR=0 $LLX=0.000000 $LLY=0.000000 $URX=-0.057800 $URY=-2.000000 $lvl=6
RiQ510 net367:9 net367:25 15.000000 $licon  $L=0.17 $W=0.17 $A=0.0289 $VC=0 $SAVL=0 $SAVC=0 $SI_A=0.0289 $COVER_DIR=0 $LLX=0.000000 $LLY=0.000000 $URX=0.170000 $URY=0.170000 $lvl=7
RmwQ511 Mmn57:g net367 0.001000 $poly $W=1000000 $SI_W=1000000 $TYPE=1 $DIR=0
*
*|NET CK 8.8353e-16
*|P (CK X 0 2.3150 1.2300) // $llx=2.3150 $lly=1.2300 $urx=2.3150 $ury=1.2300 $lvl=1
*|I (Mmp20:g Mmp20 g X 0 2.6250 3.3550) // $llx=2.6250 $lly=3.3550 $urx=2.6250 $ury=3.3550 $lvl=3
*|I (Mmn20:g Mmn20 g X 0 2.6250 0.6075) // $llx=2.6250 $lly=0.6075 $urx=2.6250 $ury=0.6075 $lvl=3
*|S (CK:8 2.6250 3.8950) // $llx=2.6250 $lly=3.8950 $urx=2.6250 $ury=3.8950 $lvl=3
*|S (CK:9 2.6250 1.2550) // $llx=2.6250 $lly=1.2550 $urx=2.6250 $ury=1.2550 $lvl=3
*|S (CK:10 2.6250 1.0900) // $llx=2.6250 $lly=1.0900 $urx=2.6250 $ury=1.0900 $lvl=3
*|S (CK:11 2.6250 0.2450) // $llx=2.6250 $lly=0.2450 $urx=2.6250 $ury=0.2450 $lvl=3
*|S (CK:12 2.7900 1.2550) // $llx=2.7900 $lly=1.2550 $urx=2.7900 $ury=1.2550 $lvl=2
*|S (CK:13 2.6250 1.2550) // $llx=2.6250 $lly=1.2550 $urx=2.6250 $ury=1.2550 $lvl=2
*|S (CK:14 2.3000 1.2550) // $llx=2.3000 $lly=1.2550 $urx=2.3000 $ury=1.2550 $lvl=2
*|S (CK:15 2.1350 1.2550) // $llx=2.1350 $lly=1.2550 $urx=2.1350 $ury=1.2550 $lvl=2
*|S (CK:16 2.3000 1.2550) // $llx=2.3000 $lly=1.2550 $urx=2.3000 $ury=1.2550 $lvl=1
CA1 Mmn20:g VSS! 1.76397e-18 $lvl=3
CA2 CK:8 VSS! 4.70765e-18 $lvl=3
CA3 CK:12 VSS! 5.03148e-18 $lvl=2
CA4 CK:15 VSS! 1.11362e-17 $lvl=2
CA5 CK:14 VSS! 4.19886e-18 $lvl=2
CA6 CK:9 VSS! 2.6249e-17 $lvl=3
CA7 CK VSS! 1.51986e-17 $lvl=1
CA8 CK:14 net461 1.2867e-18 $lvl1=2 $lvl2=2
CA9 CK:14 net461:3 7.71934e-19 $lvl1=2 $lvl2=2
CA10 CK:9 net461:3 6.97224e-19 $lvl1=3 $lvl2=2
CA11 Mmn20:g net461:3 4.6019e-19 $lvl1=3 $lvl2=2
CA12 CK:9 net461 4.44819e-19 $lvl1=3 $lvl2=2
CA13 CK:15 net461 2.98505e-18 $lvl1=2 $lvl2=2
CA14 CK net461 3.30012e-18 $lvl1=1 $lvl2=2
CA15 CK net461:3 6.32602e-18 $lvl1=1 $lvl2=2
CA16 CK net461:4 1.72271e-18 $lvl1=1 $lvl2=2
CA17 CK:15 net461:3 1.84674e-18 $lvl1=2 $lvl2=2
CA18 CK CKb:43 3.26348e-18 $lvl1=1 $lvl2=2
CA19 CK:12 CKb:51 2.93307e-18 $lvl1=2 $lvl2=2
CA20 CK:8 CKb:41 2.02573e-18 $lvl1=3 $lvl2=2
CA21 CK:14 CKb:55 2.01255e-18 $lvl1=2 $lvl2=1
CA22 CK CKb:51 1.60116e-18 $lvl1=1 $lvl2=2
CA23 CK:14 CKb:57 1.48714e-18 $lvl1=2 $lvl2=1
CA24 CK:12 CKb:43 1.34176e-18 $lvl1=2 $lvl2=2
CA25 CK CKb:42 1.14206e-18 $lvl1=1 $lvl2=2
CA26 CK:9 Mmn20:d 1.10218e-18 $lvl1=3 $lvl2=4
CA27 CK CKb:52 1.01699e-18 $lvl1=1 $lvl2=2
CA28 CK:9 CKb:51 1.01042e-18 $lvl1=3 $lvl2=2
CA29 CK:15 CKb:52 9.39172e-19 $lvl1=2 $lvl2=2
CA30 CK:14 CKb:52 9.08785e-19 $lvl1=2 $lvl2=2
CA31 CK:9 CKb:50 7.59749e-19 $lvl1=3 $lvl2=2
CA32 CK:14 CKb:51 7.42387e-19 $lvl1=2 $lvl2=2
CA33 CK:12 CKb:50 6.68308e-19 $lvl1=2 $lvl2=2
CA34 CK:9 CKb:55 6.20375e-19 $lvl1=3 $lvl2=1
CA35 Mmn20:g CKb:46 6.1066e-19 $lvl1=3 $lvl2=2
CA36 CK CKb:46 5.73026e-19 $lvl1=1 $lvl2=2
CA37 CK:9 CKb:57 5.59825e-19 $lvl1=3 $lvl2=1
CA38 CK:15 CKb:42 4.76863e-19 $lvl1=2 $lvl2=2
CA39 CK CKb:53 4.75354e-19 $lvl1=1 $lvl2=1
CA40 CK:9 CKb:43 4.64931e-19 $lvl1=3 $lvl2=2
CA41 CK:14 CKb:42 4.45943e-19 $lvl1=2 $lvl2=2
CA42 CK:9 CKb:24 4.01924e-19 $lvl1=3 $lvl2=3
CA43 CK:15 CKb:55 3.44529e-19 $lvl1=2 $lvl2=1
CA44 CK:12 CKb:55 6.59246e-18 $lvl1=2 $lvl2=1
CA45 CK:12 CKb:57 5.3405e-18 $lvl1=2 $lvl2=1
CA46 CK CKb:55 3.21479e-17 $lvl1=1 $lvl2=1
CA47 CK CKb:57 4.72007e-17 $lvl1=1 $lvl2=1
CA48 CK:9 CKb:52 6.32722e-18 $lvl1=3 $lvl2=2
CA49 CK:12 CKb:52 5.85565e-18 $lvl1=2 $lvl2=2
CA50 CK:8 CKb:37 1.2795e-16 $lvl1=3 $lvl2=2
CA51 CK:12 CKb:42 4.54226e-18 $lvl1=2 $lvl2=2
CA52 Mmn20:g CKb:42 6.91994e-17 $lvl1=3 $lvl2=2
CA53 CK:9 CKb:42 5.26989e-18 $lvl1=3 $lvl2=2
CA54 CK Db:27 3.03974e-18 $lvl1=1 $lvl2=1
CA55 CK:15 Db:21 2.61449e-18 $lvl1=2 $lvl2=1
CA56 CK:14 Db:21 2.28205e-18 $lvl1=2 $lvl2=1
CA57 CK:12 Db:27 2.20452e-18 $lvl1=2 $lvl2=1
CA58 CK Db:7 1.79714e-18 $lvl1=1 $lvl2=2
CA59 CK:9 Db:16 1.56597e-18 $lvl1=3 $lvl2=2
CA60 CK:12 Db:16 1.30546e-18 $lvl1=2 $lvl2=2
CA61 CK:8 Db:11 1.04281e-18 $lvl1=3 $lvl2=2
CA62 CK Db:26 9.50791e-19 $lvl1=1 $lvl2=1
CA63 CK:15 Db:6 8.91828e-19 $lvl1=2 $lvl2=2
CA64 CK Db:6 8.87865e-19 $lvl1=1 $lvl2=2
CA65 Mmn20:g Db:16 8.60278e-19 $lvl1=3 $lvl2=2
CA66 CK:9 Db:27 6.38047e-19 $lvl1=3 $lvl2=1
CA67 CK Db:24 4.25275e-19 $lvl1=1 $lvl2=1
CA68 CK:9 Mmn25:s 3.74755e-19 $lvl1=3 $lvl2=4
CA69 CK Db:10 3.55662e-19 $lvl1=1 $lvl2=2
CA70 CK Db:23 4.80195e-18 $lvl1=1 $lvl2=1
CA71 CK Db:21 4.00571e-17 $lvl1=1 $lvl2=1
CA72 CK:15 VSS!:32 4.30255e-18 $lvl1=2 $lvl2=2
CA73 CK VSS!:14 3.71587e-18 $lvl1=1 $lvl2=2
CA74 CK:14 VSS!:32 3.19537e-18 $lvl1=2 $lvl2=2
CA75 CK VSS!:12 3.10364e-18 $lvl1=1 $lvl2=2
CA76 CK:12 VSS!:32 2.89248e-18 $lvl1=2 $lvl2=2
CA77 CK:9 VSS!:32 5.26206e-18 $lvl1=3 $lvl2=2
CA78 CK VSS!:32 1.55483e-17 $lvl1=1 $lvl2=2
CA79 Mmn20:g VSS!:14 8.85882e-18 $lvl1=3 $lvl2=2
CA80 Mmn20:g VSS!:32 6.80374e-17 $lvl1=3 $lvl2=2
CA81 CK VSS!:38 5.80871e-17 $lvl1=1 $lvl2=1
CA82 CK:8 VDD!:6 9.19823e-18 $lvl1=3 $lvl2=2
CA83 CK:8 VDD!:9 1.29048e-16 $lvl1=3 $lvl2=2
CA84 CK VDD! 8.11276e-18 $lvl1=1 $lvl2=1
CA85 CK:9 SI:9 3.01606e-18 $lvl1=3 $lvl2=3
CA86 CK:15 SI:9 2.75175e-18 $lvl1=2 $lvl2=3
CA87 CK:9 Mmn13:g 1.96838e-18 $lvl1=3 $lvl2=3
CA88 CK SI:15 1.86856e-18 $lvl1=1 $lvl2=2
CA89 CK SI:16 1.6317e-18 $lvl1=1 $lvl2=1
CA90 CK:15 SI:15 1.51445e-18 $lvl1=2 $lvl2=2
CA91 CK:9 SI:12 1.30729e-18 $lvl1=3 $lvl2=2
CA92 CK:15 Mmn13:g 1.30522e-18 $lvl1=2 $lvl2=3
CA93 CK:14 SI:13 1.29285e-18 $lvl1=2 $lvl2=2
CA94 CK:15 SI:12 1.23811e-18 $lvl1=2 $lvl2=2
CA95 CK:15 SI:13 1.11073e-18 $lvl1=2 $lvl2=2
CA96 CK SI:12 9.99692e-19 $lvl1=1 $lvl2=2
CA97 CK:14 SI:15 8.45417e-19 $lvl1=2 $lvl2=2
CA98 CK:14 SI:18 7.91146e-19 $lvl1=2 $lvl2=1
CA99 CK:14 SI:9 7.76748e-19 $lvl1=2 $lvl2=3
CA100 CK:14 SI:12 7.66596e-19 $lvl1=2 $lvl2=2
CA101 CK SI:9 7.62558e-19 $lvl1=1 $lvl2=3
CA102 CK:12 SI:12 7.13648e-19 $lvl1=2 $lvl2=2
CA103 CK:12 SI:9 6.57871e-19 $lvl1=2 $lvl2=3
CA104 CK:12 SI:13 5.00682e-19 $lvl1=2 $lvl2=2
CA105 CK SI:18 4.14521e-17 $lvl1=1 $lvl2=1
CA106 CK SI:13 4.3184e-18 $lvl1=1 $lvl2=2
ReA1 CK:16 CK 0.012019 $metal1  $L=0.025 $W=0.260000 $SI_W=0.26 $TYPE=10 $DIR=1 $LLX=2.170000 $LLY=1.230000 $URX=2.430000 $URY=1.255000 $lvl=1
RfA2 CK:12 CK:13 12.423529 $li  $L=0.165 $W=0.170000 $SI_W=0.17 $TYPE=10 $DIR=0 $LLX=2.625000 $LLY=1.170000 $URX=2.790000 $URY=1.340000 $lvl=2
RfA3 CK:13 CK:14 24.470589 $li  $L=0.325 $W=0.170000 $SI_W=0.17 $TYPE=10 $DIR=0 $LLX=2.300000 $LLY=1.170000 $URX=2.625000 $URY=1.340000 $lvl=2
RfA4 CK:14 CK:15 12.423529 $li  $L=0.165 $W=0.170000 $SI_W=0.17 $TYPE=10 $DIR=0 $LLX=2.135000 $LLY=1.170000 $URX=2.300000 $URY=1.340000 $lvl=2
RgA5 CK:8 Mmp20:g 173.519989 $poly  $L=0.54 $W=0.150000 $SI_W=0.15 $TYPE=10 $DIR=1 $LLX=2.550000 $LLY=3.355000 $URX=2.700000 $URY=3.895000 $lvl=3
RgA6 Mmp20:g CK:9 655.959106 $poly  $L=2.1 $W=0.150000 $SI_W=0.15 $TYPE=10 $DIR=1 $LLX=2.550000 $LLY=1.255000 $URX=2.700000 $URY=3.355000 $lvl=3
RgA7 CK:9 CK:10 34.134449 $poly  $L=0.1645 $W=0.270000 $SI_W=0.27 $TYPE=10 $DIR=1 $LLX=2.490000 $LLY=1.090500 $URX=2.760000 $URY=1.255000 $lvl=3
RgA8 CK:10 Mmn20:g 155.087952 $poly  $L=0.4825 $W=0.150000 $SI_W=0.15 $TYPE=10 $DIR=1 $LLX=2.550000 $LLY=0.607500 $URX=2.700000 $URY=1.090000 $lvl=3
RgA9 Mmn20:g CK:11 116.483322 $poly  $L=0.3625 $W=0.150000 $SI_W=0.15 $TYPE=10 $DIR=1 $LLX=2.550000 $LLY=0.245000 $URX=2.700000 $URY=0.607500 $lvl=3
RjA10 CK:14 CK:16 152.000000 $mcon  $L=0.17 $W=0.17 $A=0.0289 $VC=0 $SAVL=0 $SAVC=0 $SI_A=0.0289 $COVER_DIR=0 $LLX=0.000000 $LLY=0.000000 $URX=0.170000 $URY=0.170000 $lvl=6
RiA11 CK:9 CK:13 15.000000 $licon  $L=0.17 $W=0.17 $A=0.0289 $VC=0 $SAVL=0 $SAVC=0 $SI_A=0.0289 $COVER_DIR=0 $LLX=0.000000 $LLY=0.000000 $URX=0.170000 $URY=0.170000 $lvl=7
*
*|NET D 8.55092e-16
*|P (D X 0 0.9350 2.5500) // $llx=0.9350 $lly=2.5500 $urx=0.9350 $ury=2.5500 $lvl=1
*|I (Mmp11:g Mmp11 g X 0 0.9050 3.3550) // $llx=0.9050 $lly=3.3550 $urx=0.9050 $ury=3.3550 $lvl=3
*|I (Mmn11:g Mmn11 g X 0 0.9050 0.6075) // $llx=0.9050 $lly=0.6075 $urx=0.9050 $ury=0.6075 $lvl=3
*|S (D:8 0.9050 3.8950) // $llx=0.9050 $lly=3.8950 $urx=0.9050 $ury=3.8950 $lvl=3
*|S (D:9 0.9050 2.1150) // $llx=0.9050 $lly=2.1150 $urx=0.9050 $ury=2.1150 $lvl=3
*|S (D:10 0.9050 1.9500) // $llx=0.9050 $lly=1.9500 $urx=0.9050 $ury=1.9500 $lvl=3
*|S (D:11 0.9050 0.2450) // $llx=0.9050 $lly=0.2450 $urx=0.9050 $ury=0.2450 $lvl=3
*|S (D:12 1.2850 2.1150) // $llx=1.2850 $lly=2.1150 $urx=1.2850 $ury=2.1150 $lvl=2
*|S (D:13 0.9200 2.1150) // $llx=0.9200 $lly=2.1150 $urx=0.9200 $ury=2.1150 $lvl=2
*|S (D:14 0.9050 2.1150) // $llx=0.9050 $lly=2.1150 $urx=0.9050 $ury=2.1150 $lvl=2
*|S (D:15 0.9200 3.1950) // $llx=0.9200 $lly=3.1950 $urx=0.9200 $ury=3.1950 $lvl=1
*|S (D:16 0.9200 2.1150) // $llx=0.9200 $lly=2.1150 $urx=0.9200 $ury=2.1150 $lvl=1
*|S (D:17 0.9200 1.9550) // $llx=0.9200 $lly=1.9550 $urx=0.9200 $ury=1.9550 $lvl=1
CB1 Mmn11:g VSS! 2.50043e-18 $lvl=3
CB2 D:16 VSS! 6.52899e-18 $lvl=1
CB3 D:15 VSS! 8.51903e-18 $lvl=1
CB4 D:8 VSS! 1.35169e-18 $lvl=3
CB5 D:14 VSS! 5.74297e-18 $lvl=2
CB6 D:13 VSS! 2.50682e-18 $lvl=2
CB7 D:9 VSS! 1.41988e-17 $lvl=3
CB8 D:8 net384:4 1.10231e-18 $lvl1=3 $lvl2=2
CB9 D:9 net384:4 6.67616e-19 $lvl1=3 $lvl2=2
CB10 D:9 net384 4.36115e-19 $lvl1=3 $lvl2=2
CB11 D:8 net384 6.84953e-17 $lvl1=3 $lvl2=2
CB12 D:15 net384 1.09169e-17 $lvl1=1 $lvl2=2
CB13 D:15 net384:4 6.70016e-18 $lvl1=1 $lvl2=2
CB14 Mmn11:g net449:3 6.57061e-17 $lvl1=3 $lvl2=2
CB15 D:16 Db:21 3.49869e-18 $lvl1=1 $lvl2=1
CB16 D:15 Db 2.48771e-18 $lvl1=1 $lvl2=2
CB17 D:15 Db:4 2.30101e-18 $lvl1=1 $lvl2=2
CB18 D:8 Db 2.05112e-18 $lvl1=3 $lvl2=2
CB19 D:13 Db:23 1.82661e-18 $lvl1=2 $lvl2=1
CB20 D:15 Db:21 9.11549e-19 $lvl1=1 $lvl2=1
CB21 D:15 Db:5 7.03255e-19 $lvl1=1 $lvl2=2
CB22 D:16 Db:24 5.91646e-19 $lvl1=1 $lvl2=1
CB23 D:14 Db:23 4.59828e-18 $lvl1=2 $lvl2=1
CB24 D:16 Db:23 2.24621e-17 $lvl1=1 $lvl2=1
CB25 D:15 Db:24 1.3991e-17 $lvl1=1 $lvl2=1
CB26 D:15 Db:23 3.29566e-17 $lvl1=1 $lvl2=1
CB27 D:16 SEb:35 3.60536e-18 $lvl1=1 $lvl2=1
CB28 D:15 SEb:14 2.97457e-18 $lvl1=1 $lvl2=2
CB29 Mmn11:g SEb:10 2.72683e-18 $lvl1=3 $lvl2=3
CB30 D:16 SEb:29 2.56136e-18 $lvl1=1 $lvl2=2
CB31 D:13 SEb:34 2.01106e-18 $lvl1=2 $lvl2=1
CB32 D:14 SEb:34 1.77925e-18 $lvl1=2 $lvl2=1
CB33 D:15 SEb:17 1.75839e-18 $lvl1=1 $lvl2=2
CB34 Mmn11:g SEb:24 1.65146e-18 $lvl1=3 $lvl2=2
CB35 D:16 SEb:32 1.55665e-18 $lvl1=1 $lvl2=1
CB36 Mmn11:g SEb:27 1.43673e-18 $lvl1=3 $lvl2=2
CB37 D:9 SEb:13 1.41039e-18 $lvl1=3 $lvl2=3
CB38 D:8 SEb:31 1.32668e-18 $lvl1=3 $lvl2=2
CB39 D:14 SEb:13 1.21922e-18 $lvl1=2 $lvl2=3
CB40 D:15 SEb:35 9.83899e-19 $lvl1=1 $lvl2=1
CB41 D:15 SEb:18 9.63562e-19 $lvl1=1 $lvl2=2
CB42 D:15 SEb:30 9.01062e-19 $lvl1=1 $lvl2=2
CB43 D:16 SEb:30 8.03419e-19 $lvl1=1 $lvl2=2
CB44 D:8 SEb:29 7.61329e-19 $lvl1=3 $lvl2=2
CB45 D:9 SEb:34 7.54492e-19 $lvl1=3 $lvl2=1
CB46 D:14 SEb:30 6.95051e-19 $lvl1=2 $lvl2=2
CB47 D:8 SEb:14 5.86385e-19 $lvl1=3 $lvl2=2
CB48 D:9 SEb:10 5.43205e-19 $lvl1=3 $lvl2=3
CB49 Mmn11:g SEb:19 4.33666e-19 $lvl1=3 $lvl2=2
CB50 D:13 SEb:30 4.17283e-19 $lvl1=2 $lvl2=2
CB51 D:9 SEb:18 3.98886e-19 $lvl1=3 $lvl2=2
CB52 D:14 SEb:35 3.86711e-19 $lvl1=2 $lvl2=1
CB53 D:13 SEb:35 3.67661e-19 $lvl1=2 $lvl2=1
CB54 D:9 SEb:24 3.5987e-19 $lvl1=3 $lvl2=2
CB55 D:8 SEb:13 3.58142e-19 $lvl1=3 $lvl2=3
CB56 D:9 SEb:30 3.25025e-19 $lvl1=3 $lvl2=2
CB57 D:8 SEb:18 2.53585e-19 $lvl1=3 $lvl2=2
CB58 D:13 SEb:29 4.60129e-18 $lvl1=2 $lvl2=2
CB59 D:13 SEb:31 1.02587e-17 $lvl1=2 $lvl2=2
CB60 D:15 SEb:29 5.31465e-18 $lvl1=1 $lvl2=2
CB61 D:14 SEb:31 1.72292e-17 $lvl1=2 $lvl2=2
CB62 D:15 SEb:34 1.44607e-17 $lvl1=1 $lvl2=1
CB63 D:16 SEb:34 1.92336e-17 $lvl1=1 $lvl2=1
CB64 D:14 SEb:29 2.23977e-17 $lvl1=2 $lvl2=2
CB65 D:15 SEb:31 1.00767e-17 $lvl1=1 $lvl2=2
CB66 D:15 SEb:32 2.0513e-17 $lvl1=1 $lvl2=1
CB67 D:16 SEb:31 4.40125e-18 $lvl1=1 $lvl2=2
CB68 D:9 SEb:29 4.87343e-18 $lvl1=3 $lvl2=2
CB69 D:9 SEb:31 1.26818e-17 $lvl1=3 $lvl2=2
CB70 Mmn11:g VSS!:35 6.57159e-17 $lvl1=3 $lvl2=2
CB71 Mmn11:g VSS!:15 9.01785e-18 $lvl1=3 $lvl2=2
CB72 D:16 VDD! 3.9815e-18 $lvl1=1 $lvl2=1
CB73 D:15 VDD!:39 2.27007e-18 $lvl1=1 $lvl2=1
CB74 D:14 VDD! 1.70095e-18 $lvl1=2 $lvl2=1
CB75 D:15 VDD!:4 1.12695e-18 $lvl1=1 $lvl2=2
CB76 D:16 VDD!:38 1.04007e-18 $lvl1=1 $lvl2=1
CB77 D:8 VDD!:4 1.01185e-17 $lvl1=3 $lvl2=2
CB78 D:8 VDD!:3 1.31742e-16 $lvl1=3 $lvl2=2
CB79 D:15 VDD!:3 1.56782e-17 $lvl1=1 $lvl2=2
CB80 D:15 VDD! 9.6464e-18 $lvl1=1 $lvl2=1
CB81 D:15 VDD!:38 1.38565e-17 $lvl1=1 $lvl2=1
CB82 D:9 VDD! 1.20564e-17 $lvl1=3 $lvl2=1
CB83 D:9 SE:28 3.95795e-18 $lvl1=3 $lvl2=2
CB84 D:14 SE:31 3.77367e-18 $lvl1=2 $lvl2=2
CB85 D:9 SE:26 3.72143e-18 $lvl1=3 $lvl2=2
CB86 D:9 SE:17 3.41448e-18 $lvl1=3 $lvl2=3
CB87 D:9 SE:31 3.25051e-18 $lvl1=3 $lvl2=2
CB88 D:14 SE:24 2.81404e-18 $lvl1=2 $lvl2=2
CB89 D:13 SE:26 2.77594e-18 $lvl1=2 $lvl2=2
CB90 D:16 SE:28 2.56701e-18 $lvl1=1 $lvl2=2
CB91 D:16 SE 2.08833e-18 $lvl1=1 $lvl2=1
CB92 D:13 SE:31 2.00514e-18 $lvl1=2 $lvl2=2
CB93 D:13 SE:33 1.8296e-18 $lvl1=2 $lvl2=1
CB94 D:16 SE:26 1.31569e-18 $lvl1=1 $lvl2=2
CB95 D:16 SE:31 1.20328e-18 $lvl1=1 $lvl2=2
CB96 D:14 SE:17 1.1337e-18 $lvl1=2 $lvl2=3
CB97 D:15 SE:33 9.79467e-19 $lvl1=1 $lvl2=1
CB98 D:14 SE:33 7.32517e-19 $lvl1=2 $lvl2=1
CB99 Mmn11:g SE:17 5.63737e-19 $lvl1=3 $lvl2=3
CB100 D:9 SE:15 5.52341e-19 $lvl1=3 $lvl2=3
CB101 D:15 SE 5.31601e-19 $lvl1=1 $lvl2=1
CB102 D:9 Mmp12:g 4.37204e-19 $lvl1=3 $lvl2=3
CB103 D:16 SE:24 3.78425e-19 $lvl1=1 $lvl2=2
CB104 D:14 SE:28 5.46318e-18 $lvl1=2 $lvl2=2
CB105 D:16 SE:33 3.58077e-17 $lvl1=1 $lvl2=1
CB106 D:14 SE:26 1.47254e-17 $lvl1=2 $lvl2=2
CB107 D:14 SE:21 4.31659e-18 $lvl1=2 $lvl2=3
CB108 D:9 SE:21 4.70095e-18 $lvl1=3 $lvl2=3
CB109 D:13 SE:28 5.99507e-18 $lvl1=2 $lvl2=2
ReB12 D:15 D 0.310096 $metal1  $L=0.645 $W=0.260000 $SI_W=0.26 $TYPE=10 $DIR=1 $LLX=0.790000 $LLY=2.550000 $URX=1.050000 $URY=3.195000 $lvl=1
ReB13 D D:16 0.209135 $metal1  $L=0.435 $W=0.260000 $SI_W=0.26 $TYPE=10 $DIR=1 $LLX=0.790000 $LLY=2.115000 $URX=1.050000 $URY=2.550000 $lvl=1
ReB14 D:16 D:17 0.076923 $metal1  $L=0.16 $W=0.260000 $SI_W=0.26 $TYPE=10 $DIR=1 $LLX=0.790000 $LLY=1.955000 $URX=1.050000 $URY=2.115000 $lvl=1
RfB15 D:12 D:13 27.482355 $li  $L=0.365 $W=0.170000 $SI_W=0.17 $TYPE=10 $DIR=0 $LLX=0.920000 $LLY=2.030000 $URX=1.285000 $URY=2.200000 $lvl=2
RfB16 D:13 D:14 1.129412 $li  $L=0.015 $W=1000000 $SI_W=1000000 $TYPE=1,10 $DIR=0 $LLX=0.905000 $LLY=2.030000 $URX=0.920000 $URY=2.200000 $lvl=2
RgB17 D:8 Mmp11:g 173.519989 $poly  $L=0.54 $W=0.150000 $SI_W=0.15 $TYPE=10 $DIR=1 $LLX=0.830000 $LLY=3.355000 $URX=0.980000 $URY=3.895000 $lvl=3
RgB18 Mmp11:g D:9 379.612427 $poly  $L=1.24 $W=0.150000 $SI_W=0.15 $TYPE=10 $DIR=1 $LLX=0.830000 $LLY=2.115000 $URX=0.980000 $URY=3.355000 $lvl=3
RgB19 D:9 D:10 34.134449 $poly  $L=0.1645 $W=0.270000 $SI_W=0.27 $TYPE=10 $DIR=1 $LLX=0.770000 $LLY=1.950500 $URX=1.040000 $URY=2.114500 $lvl=3
RgB20 D:10 Mmn11:g 431.434631 $poly  $L=1.3425 $W=0.150000 $SI_W=0.15 $TYPE=10 $DIR=1 $LLX=0.830000 $LLY=0.607500 $URX=0.980000 $URY=1.950000 $lvl=3
RgB21 Mmn11:g D:11 116.483322 $poly  $L=0.3625 $W=0.150000 $SI_W=0.15 $TYPE=10 $DIR=1 $LLX=0.830000 $LLY=0.245000 $URX=0.980000 $URY=0.607500 $lvl=3
RjB22 D:13 D:16 152.000000 $mcon  $L=0.17 $W=0.17 $A=0.0289 $VC=0 $SAVL=0 $SAVC=0 $SI_A=0.0289 $COVER_DIR=0 $LLX=0.000000 $LLY=0.000000 $URX=0.170000 $URY=0.170000 $lvl=6
RiB23 D:9 D:14 15.000000 $licon  $L=0.17 $W=0.17 $A=0.0289 $VC=0 $SAVL=0 $SAVC=0 $SI_A=0.0289 $COVER_DIR=0 $LLX=0.000000 $LLY=0.000000 $URX=0.170000 $URY=0.170000 $lvl=7
*
*|NET SI 8.37435e-16
*|P (SI X 0 2.3150 2.3400) // $llx=2.3150 $lly=2.3400 $urx=2.3150 $ury=2.3400 $lvl=1
*|I (Mmp13:g Mmp13 g X 0 2.1950 3.3550) // $llx=2.1950 $lly=3.3550 $urx=2.1950 $ury=3.3550 $lvl=3
*|I (Mmn13:g Mmn13 g X 0 2.1950 0.6075) // $llx=2.1950 $lly=0.6075 $urx=2.1950 $ury=0.6075 $lvl=3
*|S (SI:8 2.1950 3.8950) // $llx=2.1950 $lly=3.8950 $urx=2.1950 $ury=3.8950 $lvl=3
*|S (SI:9 2.1950 1.9350) // $llx=2.1950 $lly=1.9350 $urx=2.1950 $ury=1.9350 $lvl=3
*|S (SI:10 2.1950 1.7700) // $llx=2.1950 $lly=1.7700 $urx=2.1950 $ury=1.7700 $lvl=3
*|S (SI:11 2.1950 0.2450) // $llx=2.1950 $lly=0.2450 $urx=2.1950 $ury=0.2450 $lvl=3
*|S (SI:12 2.4650 1.9350) // $llx=2.4650 $lly=1.9350 $urx=2.4650 $ury=1.9350 $lvl=2
*|S (SI:13 2.3000 1.9350) // $llx=2.3000 $lly=1.9350 $urx=2.3000 $ury=1.9350 $lvl=2
*|S (SI:14 2.1950 1.9350) // $llx=2.1950 $lly=1.9350 $urx=2.1950 $ury=1.9350 $lvl=2
*|S (SI:15 1.8150 1.9350) // $llx=1.8150 $lly=1.9350 $urx=1.8150 $ury=1.9350 $lvl=2
*|S (SI:16 2.3000 3.0250) // $llx=2.3000 $lly=3.0250 $urx=2.3000 $ury=3.0250 $lvl=1
*|S (SI:17 2.3000 1.9350) // $llx=2.3000 $lly=1.9350 $urx=2.3000 $ury=1.9350 $lvl=1
*|S (SI:18 2.3000 1.7850) // $llx=2.3000 $lly=1.7850 $urx=2.3000 $ury=1.7850 $lvl=1
CF1 Mmn13:g VSS! 2.33974e-18 $lvl=3
CF2 SI:16 VSS! 9.95915e-18 $lvl=1
CF3 SI:18 VSS! 7.54392e-18 $lvl=1
CF4 SI:8 VSS! 2.13638e-18 $lvl=3
CF5 SI:12 VSS! 5.39601e-18 $lvl=2
CF6 SI:15 VSS! 5.09163e-18 $lvl=2
CF7 SI:13 VSS! 3.85891e-18 $lvl=2
CF8 SI:9 VSS! 2.12778e-17 $lvl=3
CF9 SI:8 net392:4 1.13391e-18 $lvl1=3 $lvl2=2
CF10 SI:9 net392:4 6.01771e-19 $lvl1=3 $lvl2=2
CF11 SI:15 net392:4 4.00088e-19 $lvl1=2 $lvl2=2
CF12 SI:12 net392:4 3.42811e-19 $lvl1=2 $lvl2=2
CF13 SI:16 net392:4 6.21278e-18 $lvl1=1 $lvl2=2
CF14 SI:8 net392:3 6.83811e-17 $lvl1=3 $lvl2=2
CF15 SI:16 net392:3 4.40305e-18 $lvl1=1 $lvl2=2
CF16 Mmn13:g net461 6.63343e-19 $lvl1=3 $lvl2=2
CF17 Mmn13:g net461:4 4.2359e-19 $lvl1=3 $lvl2=2
CF18 Mmn13:g net461:3 6.45792e-17 $lvl1=3 $lvl2=2
CF19 SI:9 CKb:52 2.85927e-18 $lvl1=3 $lvl2=2
CF20 SI:13 CKb:55 2.78539e-18 $lvl1=2 $lvl2=1
CF21 SI:12 CKb:51 2.68093e-18 $lvl1=2 $lvl2=2
CF22 SI:18 CKb:53 2.60606e-18 $lvl1=1 $lvl2=1
CF23 SI:16 CKb:41 2.19403e-18 $lvl1=1 $lvl2=2
CF24 SI:13 CKb:51 1.99992e-18 $lvl1=2 $lvl2=2
CF25 SI:12 CKb:55 1.96428e-18 $lvl1=2 $lvl2=1
CF26 SI:13 CKb:52 1.92704e-18 $lvl1=2 $lvl2=2
CF27 SI:18 CKb:51 1.33513e-18 $lvl1=1 $lvl2=2
CF28 SI:16 CKb:37 9.08088e-19 $lvl1=1 $lvl2=2
CF29 SI:18 CKb:52 8.05442e-19 $lvl1=1 $lvl2=2
CF30 SI:12 CKb:53 7.88642e-19 $lvl1=2 $lvl2=1
CF31 SI:16 CKb:52 7.59799e-19 $lvl1=1 $lvl2=2
CF32 SI:9 CKb:41 6.36103e-19 $lvl1=3 $lvl2=2
CF33 SI:9 CKb:55 5.99907e-19 $lvl1=3 $lvl2=1
CF34 SI:9 CKb:51 5.79805e-19 $lvl1=3 $lvl2=2
CF35 SI:12 CKb:41 5.77638e-19 $lvl1=2 $lvl2=2
CF36 SI:13 CKb:53 5.65307e-19 $lvl1=2 $lvl2=1
CF37 SI:18 CKb:57 5.1915e-19 $lvl1=1 $lvl2=1
CF38 SI:8 CKb:41 4.49689e-19 $lvl1=3 $lvl2=2
CF39 SI:16 CKb:51 4.21147e-19 $lvl1=1 $lvl2=2
CF40 Mmn13:g CKb:42 3.94232e-19 $lvl1=3 $lvl2=2
CF41 SI:8 CKb:37 3.6817e-19 $lvl1=3 $lvl2=2
CF42 SI:15 CKb:52 3.09461e-19 $lvl1=2 $lvl2=2
CF43 SI:9 CKb:53 2.99929e-19 $lvl1=3 $lvl2=1
CF44 SI:12 CKb:52 9.27128e-18 $lvl1=2 $lvl2=2
CF45 SI:16 CKb:40 4.19059e-18 $lvl1=1 $lvl2=2
CF46 SI:18 CKb:55 2.77453e-17 $lvl1=1 $lvl2=1
CF47 SI:16 CKb:55 1.22469e-17 $lvl1=1 $lvl2=1
CF48 SI:16 CKb:53 4.05569e-17 $lvl1=1 $lvl2=1
CF49 SI:15 Db:21 2.76753e-18 $lvl1=2 $lvl2=1
CF50 SI:16 Db:26 1.98933e-18 $lvl1=1 $lvl2=1
CF51 SI:8 Db 1.73534e-18 $lvl1=3 $lvl2=2
CF52 SI:13 Db:23 1.52928e-18 $lvl1=2 $lvl2=1
CF53 SI:16 Db:21 1.37094e-18 $lvl1=1 $lvl2=1
CF54 SI:16 Db:4 1.1578e-18 $lvl1=1 $lvl2=2
CF55 SI:13 Db:21 9.72671e-19 $lvl1=2 $lvl2=1
CF56 SI:18 Db:26 9.32521e-19 $lvl1=1 $lvl2=1
CF57 SI:18 Db:27 6.58054e-19 $lvl1=1 $lvl2=1
CF58 SI:18 Db:24 5.97126e-19 $lvl1=1 $lvl2=1