*
*|DSPF 1.5
*
*|DATE "Wed Jan  8 19:11:06 2025"
*|VENDOR "Cadence Design Systems"
*|PROGRAM "Cadence Quantus Extraction"
*|VERSION "22.1.0-p089 Linux 64 bit - (Thu Jan 19 11:47:08 PST 2023)"
*|DESIGN SDFFSX1_HS
*|DIVIDER /
*|DELIMITER :
*|DeviceFingerDelim "@"
*|BUSBIT []
*|GLOBAL_TEMPERATURE 25
*|OPERATING_TEMPERATURE 25

** *VIA_COVERAGE_CODES
** *index FF FS FP FU SF SS SP SU PF PS PP PU UF US UP UU X_by_Y
** * "FF" stands for Full landing and Full coverage
** *0 0 0 0 0 0 0 0 0 0 0 0 0 0 0 0 0
** *1 0 0 0 0 0 0 0 0 0 0 0 0 0 0 0 1 1x1
** *2 0 0 0 0 0 0 0 0 0 0 0 0 0 0 1 0 1x1
** *3 0 0 0 0 0 0 0 0 0 0 0 0 0 1 0 0 1x1
** *4 0 0 0 0 0 0 0 0 0 0 0 0 1 0 0 0 1x1
** *5 0 0 0 0 0 0 0 0 0 0 0 1 0 0 0 0 1x1
** *6 0 0 0 0 0 0 0 0 0 0 1 0 0 0 0 0 1x1
** *7 0 0 0 0 0 0 0 0 0 1 0 0 0 0 0 0 1x1
** *8 0 0 0 0 0 0 0 0 1 0 0 0 0 0 0 0 1x1
** *9 0 0 0 0 0 0 0 1 0 0 0 0 0 0 0 0 1x1
** *10 0 0 0 0 0 0 1 0 0 0 0 0 0 0 0 0 1x1
** *11 0 0 0 0 0 1 0 0 0 0 0 0 0 0 0 0 1x1
** *12 0 0 0 0 1 0 0 0 0 0 0 0 0 0 0 0 1x1
** *13 0 0 0 1 0 0 0 0 0 0 0 0 0 0 0 0 1x1
** *14 0 0 1 0 0 0 0 0 0 0 0 0 0 0 0 0 1x1
** *15 0 1 0 0 0 0 0 0 0 0 0 0 0 0 0 0 1x1
** *16 1 0 0 0 0 0 0 0 0 0 0 0 0 0 0 0 1x1

** *RESISTOR_TYPES
** *1 SHORTING_ELEMENT
** *2 PRES_NG
** *3 PRES_PG
** *4 PRES_NF
** *5 PRES_PF
** *6 TCN_NDIFF
** *7 TCN_PDIFF
** *8 TCN_NFIELD
** *9 TCN_PFIELD
** *10 QUALITY_EXTRACTED
** *11 GCNLAND
** *12 TCNLAND
** *13 DUMMY
** *14 RSD
** *15 BRIDGE

** *RESISTOR_CURRENT_DIRECTION
** *0 HORIZONTAL
** *1 VERTICAL
** *2 45 DEGREE

** QRC_TECH_DIR /vols/wfo_devel/projects/reference_SKY130/tech/sky130_release_0.0.4/quantus/extraction/typical 
** HIERARCHICAL_SPLIT_PINS_DELIMITER '%'
** caps2d version: 10
*
.SUBCKT  SDFFSX1_HS CK D Q QN SE SI SN
*
*Net Section
*
*|GROUND_NET VSS!
*
*LAYER_MAP
*0 none
*1 metal1
*2 li
*3 poly
*4 diff
*5 licon_diff
*6 mcon
*7 licon
*8 FOX

*|NET Q 1.46184e-15
*|P (Q X 0 10.1350 1.8650) // $llx=10.1350 $lly=1.8650 $urx=10.1350 $ury=1.8650 $lvl=1
*|I (Mmp55:d Mmp55 d X 0 10.2195 3.0150) // $llx=10.2195 $lly=3.0150 $urx=10.2195 $ury=3.0150 $lvl=4
*|I (Mmn55:d Mmn55 d X 0 10.2195 0.7750) // $llx=10.2195 $lly=0.7750 $urx=10.2195 $ury=0.7750 $lvl=4
*|S (Q:1 10.0800 3.7450) // $llx=10.0800 $lly=3.7450 $urx=10.0800 $ury=3.7450 $lvl=2
*|S (Q:3 10.0800 3.0150) // $llx=10.0800 $lly=3.0150 $urx=10.0800 $ury=3.0150 $lvl=2
*|S (Q:4 10.0800 2.7500) // $llx=10.0800 $lly=2.7500 $urx=10.0800 $ury=2.7500 $lvl=2
*|S (Q:5 10.0800 1.1550) // $llx=10.0800 $lly=1.1550 $urx=10.0800 $ury=1.1550 $lvl=2
*|S (Q:6 10.0800 0.8100) // $llx=10.0800 $lly=0.8100 $urx=10.0800 $ury=0.8100 $lvl=2
*|S (Q:8 10.0800 0.7750) // $llx=10.0800 $lly=0.7750 $urx=10.0800 $ury=0.7750 $lvl=2
*|S (Q:9 10.0800 0.3950) // $llx=10.0800 $lly=0.3950 $urx=10.0800 $ury=0.3950 $lvl=2
*|S (Q:10 10.1375 3.2550) // $llx=10.1375 $lly=3.2550 $urx=10.1375 $ury=3.2550 $lvl=1
*|S (Q:11 10.0800 2.7500) // $llx=10.0800 $lly=2.7500 $urx=10.0800 $ury=2.7500 $lvl=1
*|S (Q:12 10.0800 0.8100) // $llx=10.0800 $lly=0.8100 $urx=10.0800 $ury=0.8100 $lvl=1
*|S (Q:13 10.1375 0.4850) // $llx=10.1375 $lly=0.4850 $urx=10.1375 $ury=0.4850 $lvl=1
CC1 Mmn55:d VSS! 1.54352e-18 $lvl=4
CC2 Mmp55:d VSS! 2.13516e-18 $lvl=4
CC3 Q:11 VSS! 7.62843e-18 $lvl=1
CC4 Q:10 VSS! 4.55723e-18 $lvl=1
CC5 Q:13 VSS! 6.60028e-18 $lvl=1
CC6 Q:5 VSS! 1.34267e-17 $lvl=2
CC7 Q:9 VSS! 1.02314e-18 $lvl=2
CC8 Q:1 VSS! 9.90195e-18 $lvl=2
CC9 Q:6 VSS! 1.62293e-18 $lvl=2
CC10 Q:4 VSS! 3.07235e-18 $lvl=2
CC11 Q VSS! 5.37672e-18 $lvl=1
CC12 Q:13 net492:25 7.02875e-18 $lvl1=1 $lvl2=2
CC13 Q net492:22 6.47343e-18 $lvl1=1 $lvl2=2
CC14 Q:1 net492:27 5.94766e-18 $lvl1=2 $lvl2=1
CC15 Q:1 Mmp56:d 5.89632e-18 $lvl1=2 $lvl2=4
CC16 Q:10 net492:27 4.87491e-18 $lvl1=1 $lvl2=1
CC17 Q net492:27 4.72528e-18 $lvl1=1 $lvl2=1
CC18 Mmp55:d net492:12 4.62179e-18 $lvl1=4 $lvl2=2
CC19 Q net492:25 4.57668e-18 $lvl1=1 $lvl2=2
CC20 Q:1 net492:15 4.44296e-18 $lvl1=2 $lvl2=2
CC21 Q:6 net492:18 4.03766e-18 $lvl1=2 $lvl2=2
CC22 Q:6 net492:17 3.82723e-18 $lvl1=2 $lvl2=2
CC23 Q:5 Mmn56:d 3.55856e-18 $lvl1=2 $lvl2=4
CC24 Q:6 net492:25 3.10387e-18 $lvl1=2 $lvl2=2
CC25 Mmn55:d net492:17 3.0226e-18 $lvl1=4 $lvl2=2
CC26 Q:5 net492:18 2.79076e-18 $lvl1=2 $lvl2=2
CC27 Q:10 net492:12 2.6928e-18 $lvl1=1 $lvl2=2
CC28 Q:4 net492:27 2.34424e-18 $lvl1=2 $lvl2=1
CC29 Q:6 net492:30 2.18451e-18 $lvl1=2 $lvl2=1
CC30 Q:13 net492:18 2.07544e-18 $lvl1=1 $lvl2=2
CC31 Q:4 net492:15 2.07228e-18 $lvl1=2 $lvl2=2
CC32 Q:5 net492:21 1.9673e-18 $lvl1=2 $lvl2=2
CC33 Q:1 net492:28 1.94398e-18 $lvl1=2 $lvl2=1
CC34 Q:11 net492:12 1.89986e-18 $lvl1=1 $lvl2=2
CC35 Q:6 net492:22 1.72522e-18 $lvl1=2 $lvl2=2
CC36 Q:9 net492:17 1.59447e-18 $lvl1=2 $lvl2=2
CC37 Q:9 net492:21 1.54391e-18 $lvl1=2 $lvl2=2
CC38 Q:13 net492:24 1.52768e-18 $lvl1=1 $lvl2=2
CC39 Q:11 net492:15 1.43917e-18 $lvl1=1 $lvl2=2
CC40 Q:4 net492:12 1.39604e-18 $lvl1=2 $lvl2=2
CC41 Q:5 net492:24 1.31866e-18 $lvl1=2 $lvl2=2
CC42 Q:6 net492:28 1.16017e-18 $lvl1=2 $lvl2=1
CC43 Q:13 net492:17 1.03761e-18 $lvl1=1 $lvl2=2
CC44 Q:5 net492:30 1.00206e-18 $lvl1=2 $lvl2=1
CC45 Q:5 net492:28 9.95494e-19 $lvl1=2 $lvl2=1
CC46 Q:6 net492:21 9.78519e-19 $lvl1=2 $lvl2=2
CC47 Q net492:30 9.16255e-19 $lvl1=1 $lvl2=1
CC48 Q net492:24 8.9831e-19 $lvl1=1 $lvl2=2
CC49 Q:4 net492:16 8.60746e-19 $lvl1=2 $lvl2=2
CC50 Q:1 net492:8 8.44771e-19 $lvl1=2 $lvl2=3
CC51 Q:9 net492:18 8.032e-19 $lvl1=2 $lvl2=2
CC52 Mmn55:d net492:25 7.30281e-19 $lvl1=4 $lvl2=2
CC53 Q:5 net492:9 7.18676e-19 $lvl1=2 $lvl2=3
CC54 Q:6 net492:24 7.17385e-19 $lvl1=2 $lvl2=2
CC55 Q:11 net492:16 7.04467e-19 $lvl1=1 $lvl2=2
CC56 Q:13 net492:27 6.44862e-19 $lvl1=1 $lvl2=1
CC57 Q:1 net492:25 6.17333e-19 $lvl1=2 $lvl2=2
CC58 Q:11 net492:27 6.35116e-17 $lvl1=1 $lvl2=1
CC59 Q:13 net492:28 3.22359e-17 $lvl1=1 $lvl2=1
CC60 Q:13 net492:30 3.88658e-17 $lvl1=1 $lvl2=1
CC61 Q:1 net492:12 4.79919e-17 $lvl1=2 $lvl2=2
CC62 Q:13 net492:22 9.14955e-18 $lvl1=1 $lvl2=2
CC63 Q:5 net492:25 1.9545e-17 $lvl1=2 $lvl2=2
CC64 Q:11 net492:28 1.21951e-17 $lvl1=1 $lvl2=1
CC65 Q net492:28 3.76732e-17 $lvl1=1 $lvl2=1
CC66 Q:5 net492:17 2.10729e-17 $lvl1=2 $lvl2=2
CC67 Q:5 net492:22 8.02164e-18 $lvl1=2 $lvl2=2
CC68 Q:1 net492:16 1.33026e-17 $lvl1=2 $lvl2=2
CC69 Q:1 qbint:31 5.16728e-18 $lvl1=2 $lvl2=3
CC70 Q:1 qbint:46 3.78681e-18 $lvl1=2 $lvl2=2
CC71 Q:11 qbint:44 3.42674e-18 $lvl1=1 $lvl2=2
CC72 Q qbint:46 2.96994e-18 $lvl1=1 $lvl2=2
CC73 Q:1 qbint:26 2.23323e-18 $lvl1=2 $lvl2=3
CC74 Q:1 qbint:27 1.98417e-18 $lvl1=2 $lvl2=3
CC75 Q:13 qbint:44 1.86303e-18 $lvl1=1 $lvl2=2
CC76 Q:11 qbint:50 1.59589e-18 $lvl1=1 $lvl2=1
CC77 Q:5 qbint:31 1.54727e-18 $lvl1=2 $lvl2=3
CC78 Q:5 Mmn56:g 1.42379e-18 $lvl1=2 $lvl2=3
CC79 Q:13 qbint:54 1.29786e-18 $lvl1=1 $lvl2=1
CC80 Q:13 qbint:52 1.22558e-18 $lvl1=1 $lvl2=1
CC81 Mmp55:d qbint:31 1.20378e-18 $lvl1=4 $lvl2=3
CC82 Q qbint:52 1.17799e-18 $lvl1=1 $lvl2=1
CC83 Q:5 qbint:27 1.13378e-18 $lvl1=2 $lvl2=3
CC84 Q:11 qbint:52 1.06622e-18 $lvl1=1 $lvl2=1
CC85 Q qbint:31 9.0765e-19 $lvl1=1 $lvl2=3
CC86 Q:11 qbint:46 8.41951e-19 $lvl1=1 $lvl2=2
CC87 Q:4 qbint:44 8.22111e-19 $lvl1=2 $lvl2=2
CC88 Mmn55:d qbint:31 7.908e-19 $lvl1=4 $lvl2=3
CC89 Q:9 Mmn55:g 6.58601e-19 $lvl1=2 $lvl2=3
CC90 Mmp55:d qbint:27 6.07032e-19 $lvl1=4 $lvl2=3
CC91 Q:1 qbint:50 5.19861e-19 $lvl1=2 $lvl2=1
CC92 Q qbint:54 4.27874e-19 $lvl1=1 $lvl2=1
CC93 Mmp55:d qbint:44 3.89208e-19 $lvl1=4 $lvl2=2
CC94 Q:13 qbint:46 3.85893e-19 $lvl1=1 $lvl2=2
CC95 Q:5 qbint:44 3.83971e-19 $lvl1=2 $lvl2=2
CC96 Q qbint:50 3.71651e-19 $lvl1=1 $lvl2=1
CC97 Q:11 qbint:54 3.4227e-19 $lvl1=1 $lvl2=1
CC98 Mmn55:d qbint:27 3.41112e-19 $lvl1=4 $lvl2=3
CC99 Q qbint:44 1.66254e-17 $lvl1=1 $lvl2=2
CC100 Q:5 Mmn55:g 1.29078e-16 $lvl1=2 $lvl2=3
CC101 Q:1 qbint:30 2.54722e-16 $lvl1=2 $lvl2=3
CC102 Q:1 qbint:44 8.61583e-18 $lvl1=2 $lvl2=2
CC103 Q:9 VSS!:3 5.44649e-18 $lvl1=2 $lvl2=2
CC104 Q:13 VSS!:5 5.44427e-18 $lvl1=1 $lvl2=2
CC105 Q:6 VSS!:5 3.80402e-18 $lvl1=2 $lvl2=2
CC106 Q:9 VSS!:36 2.00074e-18 $lvl1=2 $lvl2=1
CC107 Q:6 VSS!:36 1.85406e-18 $lvl1=2 $lvl2=1
CC108 Mmn55:d VSS!:5 1.74431e-18 $lvl1=4 $lvl2=2
CC109 Q:5 VSS!:6 1.58149e-18 $lvl1=2 $lvl2=4
CC110 Q:11 VSS!:36 1.18727e-18 $lvl1=1 $lvl2=1
CC111 Q VSS!:36 1.17861e-18 $lvl1=1 $lvl2=1
CC112 Mmn55:d VSS!:3 1.1167e-18 $lvl1=4 $lvl2=2
CC113 Q:13 VSS!:35 1.04008e-18 $lvl1=1 $lvl2=1
CC114 Q:13 VSS!:3 1.27136e-17 $lvl1=1 $lvl2=2
CC115 Q:9 VSS!:5 1.46401e-17 $lvl1=2 $lvl2=2
CC116 Q:13 VSS!:36 4.96379e-17 $lvl1=1 $lvl2=1
CC117 Q:5 VSS!:3 3.83673e-17 $lvl1=2 $lvl2=2
CC118 Q:6 VSS!:3 1.42751e-17 $lvl1=2 $lvl2=2
CC119 Q:5 VSS!:5 1.07665e-17 $lvl1=2 $lvl2=2
CC120 Q:4 VDD!:32 5.17878e-18 $lvl1=2 $lvl2=2
CC121 Q VDD! 4.70385e-18 $lvl1=1 $lvl2=1
CC122 Q:10 VDD!:32 3.908e-18 $lvl1=1 $lvl2=2
CC123 Mmp55:d VDD!:12 2.45177e-18 $lvl1=4 $lvl2=2
CC124 Q:10 VDD! 2.06224e-18 $lvl1=1 $lvl2=1
CC125 Q:1 VDD!:29 1.76208e-18 $lvl1=2 $lvl2=2
CC126 Q VDD!:32 1.72283e-18 $lvl1=1 $lvl2=2
CC127 Q:10 VDD!:12 1.64269e-18 $lvl1=1 $lvl2=2
CC128 Q:1 VDD!:7 1.32961e-18 $lvl1=2 $lvl2=4
CC129 Mmp55:d VDD!:32 1.15168e-18 $lvl1=4 $lvl2=2
CC130 Q:11 VDD!:35 1.08076e-18 $lvl1=1 $lvl2=1
CC131 Q:13 VDD!:36 9.07248e-19 $lvl1=1 $lvl2=1
CC132 Q VDD!:36 8.51669e-19 $lvl1=1 $lvl2=1
CC133 Q:11 VDD!:12 7.01707e-19 $lvl1=1 $lvl2=2
CC134 Q:13 VDD! 1.02403e-17 $lvl1=1 $lvl2=1
CC135 Q:1 VDD! 1.46288e-17 $lvl1=2 $lvl2=1
CC136 Q:11 VDD!:32 1.84062e-17 $lvl1=1 $lvl2=2
CC137 Q:10 VDD!:36 1.34654e-17 $lvl1=1 $lvl2=1
CC138 Q:11 VDD!:36 1.04823e-17 $lvl1=1 $lvl2=1
CC139 Q:1 VDD!:32 1.04144e-16 $lvl1=2 $lvl2=2
CC140 Q:1 VDD!:36 9.3169e-18 $lvl1=2 $lvl2=1
CC141 Q:1 VDD!:12 2.92346e-17 $lvl1=2 $lvl2=2
CC142 Q:11 VDD! 1.04281e-17 $lvl1=1 $lvl2=1
CC143 Q QN:12 5.78774e-18 $lvl1=1 $lvl2=1
CC144 Q QN:11 5.43038e-18 $lvl1=1 $lvl2=1
CC145 Q:13 QN 5.33851e-18 $lvl1=1 $lvl2=1
CC146 Q:10 QN:11 2.91157e-18 $lvl1=1 $lvl2=1
CC147 Q:11 QN:10 2.84488e-18 $lvl1=1 $lvl2=1
CC148 Q:11 QN:1 2.51398e-18 $lvl1=1 $lvl2=2
CC149 Q:10 QN:10 1.86304e-18 $lvl1=1 $lvl2=1
CC150 Q:13 QN:6 1.81031e-18 $lvl1=1 $lvl2=2
CC151 Q:11 QN:12 1.66344e-18 $lvl1=1 $lvl2=1
CC152 Q:13 QN:11 1.45468e-18 $lvl1=1 $lvl2=1
CC153 Q:1 QN:1 1.16659e-18 $lvl1=2 $lvl2=2
CC154 Q:1 QN:11 1.16617e-18 $lvl1=2 $lvl2=1
CC155 Q:11 QN:4 9.11363e-19 $lvl1=1 $lvl2=2
CC156 Q QN:1 8.5897e-19 $lvl1=1 $lvl2=2
CC157 Q:6 QN:12 8.30016e-19 $lvl1=2 $lvl2=1
CC158 Q:10 QN:1 7.54727e-19 $lvl1=1 $lvl2=2
CC159 Q:13 QN:5 7.22897e-19 $lvl1=1 $lvl2=2
CC160 Q:4 QN:11 6.41776e-19 $lvl1=2 $lvl2=1
CC161 Q:11 QN:11 3.39094e-17 $lvl1=1 $lvl2=1
CC162 Q:11 QN 6.94618e-18 $lvl1=1 $lvl2=1
CC163 Q QN 1.35533e-17 $lvl1=1 $lvl2=1
CC164 Q:13 QN:12 3.14852e-17 $lvl1=1 $lvl2=1
ReC24 Q:10 Q:11 0.182971 $metal1  $L=0.505 $W=0.345000 $SI_W=0.345 $TYPE=10 $DIR=1 $LLX=9.965000 $LLY=2.750000 $URX=10.310000 $URY=3.255000 $lvl=1
ReC25 Q:11 Q 0.320652 $metal1  $L=0.885 $W=0.345000 $SI_W=0.345 $TYPE=10 $DIR=1 $LLX=9.965000 $LLY=1.865000 $URX=10.310000 $URY=2.750000 $lvl=1
ReC26 Q Q:12 0.382246 $metal1  $L=1.055 $W=0.345000 $SI_W=0.345 $TYPE=10 $DIR=1 $LLX=9.965000 $LLY=0.810000 $URX=10.310000 $URY=1.865000 $lvl=1
ReC27 Q:12 Q:13 0.117754 $metal1  $L=0.325 $W=0.345000 $SI_W=0.345 $TYPE=10 $DIR=1 $LLX=9.965000 $LLY=0.485000 $URX=10.310000 $URY=0.810000 $lvl=1
RfC28 Q:1 Q:3 54.964703 $li  $L=0.73 $W=0.170000 $SI_W=0.17 $TYPE=10 $DIR=1 $LLX=9.995000 $LLY=3.015000 $URX=10.165000 $URY=3.745000 $lvl=2
RfC29 Q:3 Q:4 4.376774 $li  $L=0.265 $W=0.170000 $SI_W=0.775 $TYPE=10 $DIR=1 $LLX=9.995000 $LLY=2.750000 $URX=10.165000 $URY=3.015000 $lvl=2
RfC30 Q:5 Q:6 25.976471 $li  $L=0.345 $W=0.170000 $SI_W=0.17 $TYPE=10 $DIR=1 $LLX=9.995000 $LLY=0.810000 $URX=10.165000 $URY=1.155000 $lvl=2
RfC31 Q:6 Q:8 0.923711 $li  $L=0.035 $W=0.170000 $SI_W=0.485 $TYPE=10 $DIR=1 $LLX=9.995000 $LLY=0.775000 $URX=10.165000 $URY=0.810000 $lvl=2
RfC32 Q:8 Q:9 28.611765 $li  $L=0.38 $W=0.170000 $SI_W=0.17 $TYPE=10 $DIR=1 $LLX=9.995000 $LLY=0.395000 $URX=10.165000 $URY=0.775000 $lvl=2
RhC33 Mmn55:d Q:8 7.500000 $licon_diff  $A=0.0578 $VC=0 $SAVL=0 $SAVC=0 $SI_A=0.0578 $COVER_DIR=0 $LLX=0.000000 $LLY=0.000000 $URX=-0.057800 $URY=-2.000000 $lvl=5
Rh_2_C34 Mmp55:d Q:3 3.750000 $licon_diff  $A=0.1156 $VC=0 $SAVL=0 $SAVC=0 $SI_A=0.1156 $COVER_DIR=0 $LLX=0.000000 $LLY=0.000000 $URX=-0.115600 $URY=-4.000000 $lvl=5
RjC35 Q:4 Q:11 50.666668 $mcon  $A=0.0867 $VC=0 $SAVL=0 $SAVC=0 $SI_A=0.0867 $COVER_DIR=0 $LLX=0.000000 $LLY=0.000000 $URX=-0.086700 $URY=-3.000000 $lvl=6
RjC36 Q:6 Q:12 76.000000 $mcon  $A=0.0578 $VC=0 $SAVL=0 $SAVC=0 $SI_A=0.0578 $COVER_DIR=0 $LLX=0.000000 $LLY=0.000000 $URX=-0.057800 $URY=-2.000000 $lvl=6
*
*|NET Db 2.67691e-15
*|I (Mmp12:d Mmp12 d X 0 1.4105 3.3550) // $llx=1.4105 $lly=3.3550 $urx=1.4105 $ury=3.3550 $lvl=4
*|I (Mmp25:s Mmp25 s X 0 3.4995 3.3550) // $llx=3.4995 $lly=3.3550 $urx=3.4995 $ury=3.3550 $lvl=4
*|I (Mmp14:d Mmp14 d X 0 1.6895 3.3550) // $llx=1.6895 $lly=3.3550 $urx=1.6895 $ury=3.3550 $lvl=4
*|I (Mmn25:d Mmn25 d X 0 3.4995 0.6075) // $llx=3.4995 $lly=0.6075 $urx=3.4995 $ury=0.6075 $lvl=4
*|I (Mmn14:d Mmn14 d X 0 1.6895 0.6075) // $llx=1.6895 $lly=0.6075 $urx=1.6895 $ury=0.6075 $lvl=4
*|I (Mmn12:d Mmn12 d X 0 1.4105 0.6075) // $llx=1.4105 $lly=0.6075 $urx=1.4105 $ury=0.6075 $lvl=4
*|S (Db 1.5500 3.7450) // $llx=1.5500 $lly=3.7450 $urx=1.5500 $ury=3.7450 $lvl=2
*|S (Db:3 1.5500 3.3550) // $llx=1.5500 $lly=3.3550 $urx=1.5500 $ury=3.3550 $lvl=2
*|S (Db:4 1.5500 2.8950) // $llx=1.5500 $lly=2.8950 $urx=1.5500 $ury=2.8950 $lvl=2
*|S (Db:5 1.5500 2.7300) // $llx=1.5500 $lly=2.7300 $urx=1.5500 $ury=2.7300 $lvl=2
*|S (Db:6 1.5500 0.8200) // $llx=1.5500 $lly=0.8200 $urx=1.5500 $ury=0.8200 $lvl=2
*|S (Db:7 1.5500 0.6550) // $llx=1.5500 $lly=0.6550 $urx=1.5500 $ury=0.6550 $lvl=2
*|S (Db:9 1.5500 0.6050) // $llx=1.5500 $lly=0.6050 $urx=1.5500 $ury=0.6050 $lvl=2
*|S (Db:10 1.5500 0.3950) // $llx=1.5500 $lly=0.3950 $urx=1.5500 $ury=0.3950 $lvl=2
*|S (Db:11 3.3600 3.7450) // $llx=3.3600 $lly=3.7450 $urx=3.3600 $ury=3.7450 $lvl=2
*|S (Db:13 3.3600 3.3550) // $llx=3.3600 $lly=3.3550 $urx=3.3600 $ury=3.3550 $lvl=2
*|S (Db:14 3.3600 2.8950) // $llx=3.3600 $lly=2.8950 $urx=3.3600 $ury=2.8950 $lvl=2
*|S (Db:15 3.3600 2.7300) // $llx=3.3600 $lly=2.7300 $urx=3.3600 $ury=2.7300 $lvl=2
*|S (Db:16 3.3600 0.8200) // $llx=3.3600 $lly=0.8200 $urx=3.3600 $ury=0.8200 $lvl=2
*|S (Db:17 3.3600 0.6550) // $llx=3.3600 $lly=0.6550 $urx=3.3600 $ury=0.6550 $lvl=2
*|S (Db:19 3.3600 0.6050) // $llx=3.3600 $lly=0.6050 $urx=3.3600 $ury=0.6050 $lvl=2
*|S (Db:20 3.3600 0.3950) // $llx=3.3600 $lly=0.3950 $urx=3.3600 $ury=0.3950 $lvl=2
*|S (Db:21 1.5500 0.5100) // $llx=1.5500 $lly=0.5100 $urx=1.5500 $ury=0.5100 $lvl=1
*|S (Db:22 1.5500 0.6550) // $llx=1.5500 $lly=0.6550 $urx=1.5500 $ury=0.6550 $lvl=1
*|S (Db:23 1.5500 2.8950) // $llx=1.5500 $lly=2.8950 $urx=1.5500 $ury=2.8950 $lvl=1
*|S (Db:24 1.5500 3.2950) // $llx=1.5500 $lly=3.2950 $urx=1.5500 $ury=3.2950 $lvl=1
*|S (Db:25 3.3600 3.2950) // $llx=3.3600 $lly=3.2950 $urx=3.3600 $ury=3.2950 $lvl=1
*|S (Db:26 3.3600 2.8950) // $llx=3.3600 $lly=2.8950 $urx=3.3600 $ury=2.8950 $lvl=1
*|S (Db:27 3.3600 0.6550) // $llx=3.3600 $lly=0.6550 $urx=3.3600 $ury=0.6550 $lvl=1
*|S (Db:28 3.3600 0.5100) // $llx=3.3600 $lly=0.5100 $urx=3.3600 $ury=0.5100 $lvl=1
CK1 Mmn14:d VSS! 1.72401e-18 $lvl=4
CK2 Mmn25:d VSS! 1.37844e-18 $lvl=4
CK3 Mmp25:s VSS! 3.39639e-18 $lvl=4
CK4 Mmp12:d VSS! 1.94635e-18 $lvl=4
CK5 Db:27 VSS! 1.14615e-17 $lvl=1
CK6 Db:26 VSS! 1.23999e-17 $lvl=1
CK7 Db:23 VSS! 1.00842e-17 $lvl=1
CK8 Db:22 VSS! 1.05768e-17 $lvl=1
CK9 Db:25 VSS! 1.13118e-17 $lvl=1
CK10 Db:24 VSS! 8.57571e-18 $lvl=1
CK11 Db:16 VSS! 1.00644e-17 $lvl=2
CK12 Db:20 VSS! 1.97897e-18 $lvl=2
CK13 Db:11 VSS! 5.05935e-18 $lvl=2
CK14 Db:15 VSS! 3.62316e-18 $lvl=2
CK15 Db:6 VSS! 9.06899e-18 $lvl=2
CK16 Db:10 VSS! 2.30131e-18 $lvl=2
CK17 Db:5 VSS! 2.36627e-18 $lvl=2
CK18 Db:7 VSS! 3.00391e-18 $lvl=2
CK19 Db:4 VSS! 2.26169e-18 $lvl=2
CK20 Db:17 VSS! 3.24794e-18 $lvl=2
CK21 Db:14 VSS! 3.36321e-18 $lvl=2
CK22 Db VSS! 1.71114e-18 $lvl=2
CK23 Db net441:4 1.41189e-18 $lvl1=2 $lvl2=2
CK24 Db Mmp14:s 8.27178e-19 $lvl1=2 $lvl2=4
CK25 Db:7 net506:4 9.01485e-19 $lvl1=2 $lvl2=2
CK26 Db:22 net506:4 5.52984e-19 $lvl1=1 $lvl2=2
CK27 Db net433:4 1.39436e-18 $lvl1=2 $lvl2=2
CK28 Db Mmp12:s 9.15591e-19 $lvl1=2 $lvl2=4
CK29 Db:22 net494 1.02743e-18 $lvl1=1 $lvl2=2
CK30 Db:7 net494:4 9.57274e-19 $lvl1=2 $lvl2=2
CK31 Db:22 net494:4 5.94063e-19 $lvl1=1 $lvl2=2
CK32 Db:7 net506:3 5.05642e-18 $lvl1=2 $lvl2=2
CK33 Db net433:3 2.96372e-17 $lvl1=2 $lvl2=2
CK34 Db:10 net506:4 2.16059e-18 $lvl1=2 $lvl2=2
CK35 Db:24 net433:3 4.05722e-18 $lvl1=1 $lvl2=2
CK36 Db:24 net441:4 1.68325e-18 $lvl1=1 $lvl2=2
CK37 Db:24 net441:3 1.45783e-17 $lvl1=1 $lvl2=2
CK38 Db:5 net441:3 4.81269e-18 $lvl1=2 $lvl2=2
CK39 Db:6 net506 3.21869e-18 $lvl1=2 $lvl2=2
CK40 Db:6 net494:3 1.42756e-17 $lvl1=2 $lvl2=2
CK41 Db:4 net441:3 3.34774e-18 $lvl1=2 $lvl2=2
CK42 Db:10 net494:3 3.18003e-18 $lvl1=2 $lvl2=2
CK43 Db:6 net506:3 1.481e-17 $lvl1=2 $lvl2=2
CK44 Db:7 net494:3 4.63078e-18 $lvl1=2 $lvl2=2
CK45 Db:4 net441:4 3.19129e-18 $lvl1=2 $lvl2=2
CK46 Db:7 net506 1.71886e-18 $lvl1=2 $lvl2=2
CK47 Db:10 net506:3 3.26572e-18 $lvl1=2 $lvl2=2
CK48 Db:6 net494 2.1682e-18 $lvl1=2 $lvl2=2
CK49 Db:22 net506 2.57266e-18 $lvl1=1 $lvl2=2
CK50 Db:5 net433:4 5.06358e-18 $lvl1=2 $lvl2=2
CK51 Db:23 net441:3 1.62074e-18 $lvl1=1 $lvl2=2
CK52 Db:4 net433:3 3.71249e-18 $lvl1=2 $lvl2=2
CK53 Db:23 net441:4 2.51747e-18 $lvl1=1 $lvl2=2
CK54 Db:7 net494 1.49186e-18 $lvl1=2 $lvl2=2
CK55 Db:22 net506:3 3.03798e-18 $lvl1=1 $lvl2=2
CK56 Db:23 net433:3 1.75045e-18 $lvl1=1 $lvl2=2
CK57 Db:23 net433:4 1.79167e-18 $lvl1=1 $lvl2=2
CK58 Db:22 net494:3 1.99106e-18 $lvl1=1 $lvl2=2
CK59 Db:4 net433:4 3.11363e-18 $lvl1=2 $lvl2=2
CK60 Db:5 net441:4 4.9774e-18 $lvl1=2 $lvl2=2
CK61 Db net441:3 2.90933e-17 $lvl1=2 $lvl2=2
CK62 Db:6 net494:4 1.52049e-18 $lvl1=2 $lvl2=2
CK63 Db:10 net494:4 2.05332e-18 $lvl1=2 $lvl2=2
CK64 Db:6 net506:4 1.50667e-18 $lvl1=2 $lvl2=2
CK65 Db:5 net433:3 4.96483e-18 $lvl1=2 $lvl2=2
CK66 Db:15 CKbb:35 6.39076e-18 $lvl1=2 $lvl2=2
CK67 Db:26 CKbb:34 6.33048e-18 $lvl1=1 $lvl2=2
CK68 Db:26 CKbb:35 6.28665e-18 $lvl1=1 $lvl2=2
CK69 Db:15 CKbb:17 5.34122e-18 $lvl1=2 $lvl2=3
CK70 Db:15 CKbb:34 3.04578e-18 $lvl1=2 $lvl2=2
CK71 Db:27 CKbb:48 2.28845e-18 $lvl1=1 $lvl2=2
CK72 Db:11 CKbb:17 1.97769e-18 $lvl1=2 $lvl2=3
CK73 Db:16 CKbb:20 1.96827e-18 $lvl1=2 $lvl2=3
CK74 Db:14 CKbb:34 1.90509e-18 $lvl1=2 $lvl2=2
CK75 Db:16 CKbb:48 1.68004e-18 $lvl1=2 $lvl2=2
CK76 Db:14 CKbb:35 1.47479e-18 $lvl1=2 $lvl2=2
CK77 Db:26 CKbb:17 1.44065e-18 $lvl1=1 $lvl2=3
CK78 Db:15 CKbb:15 1.28497e-18 $lvl1=2 $lvl2=3
CK79 Db:11 CKbb:15 1.28807e-16 $lvl1=2 $lvl2=3
CK80 Db:27 n20:31 7.92655e-18 $lvl1=1 $lvl2=1
CK81 Db:25 n20:12 6.67168e-18 $lvl1=1 $lvl2=2
CK82 Db:26 n20:29 6.57718e-18 $lvl1=1 $lvl2=1
CK83 Db:17 n20:18 6.3232e-18 $lvl1=2 $lvl2=2
CK84 Db:14 n20:15 6.22129e-18 $lvl1=2 $lvl2=2
CK85 Db:15 n20:16 5.16687e-18 $lvl1=2 $lvl2=2
CK86 Db:16 n20:18 3.11016e-18 $lvl1=2 $lvl2=2
CK87 Db:20 n20:21 3.03911e-18 $lvl1=2 $lvl2=2
CK88 Db:15 n20:12 2.99651e-18 $lvl1=2 $lvl2=2
CK89 Db:11 n20:16 2.82451e-18 $lvl1=2 $lvl2=2
CK90 Db:15 n20:15 2.43107e-18 $lvl1=2 $lvl2=2
CK91 Db:17 n20:29 2.31441e-18 $lvl1=2 $lvl2=1
CK92 Db:16 n20:21 2.17745e-18 $lvl1=2 $lvl2=2
CK93 Db:14 n20:16 2.09506e-18 $lvl1=2 $lvl2=2
CK94 Db:17 n20:17 2.01224e-18 $lvl1=2 $lvl2=2
CK95 Db:14 n20:31 1.88945e-18 $lvl1=2 $lvl2=1
CK96 Db:27 n20:18 1.80454e-18 $lvl1=1 $lvl2=2
CK97 Db:20 n20:17 1.78428e-18 $lvl1=2 $lvl2=2
CK98 Db:26 n20:15 1.62985e-18 $lvl1=1 $lvl2=2
CK99 Db:16 n20:29 1.60238e-18 $lvl1=2 $lvl2=1
CK100 Db:27 n20:17 1.56308e-18 $lvl1=1 $lvl2=2
CK101 Db:20 n20:18 1.39664e-18 $lvl1=2 $lvl2=2
CK102 Db:11 n20:15 1.38154e-18 $lvl1=2 $lvl2=2
CK103 Db:11 n20:31 1.3091e-18 $lvl1=2 $lvl2=1
CK104 Db:11 n20:12 4.85084e-17 $lvl1=2 $lvl2=2
CK105 Db:25 n20:31 1.48335e-17 $lvl1=1 $lvl2=1
CK106 Db:16 n20:17 1.64697e-17 $lvl1=2 $lvl2=2
CK107 Db:26 n20:31 1.13174e-16 $lvl1=1 $lvl2=1
CK108 Db:27 n20:29 1.15938e-16 $lvl1=1 $lvl2=1
CK109 Db:27 CKb:50 7.75656e-18 $lvl1=1 $lvl2=2
CK110 Db:26 CKb:50 7.29951e-18 $lvl1=1 $lvl2=2
CK111 Db:27 CKb:52 6.88295e-18 $lvl1=1 $lvl2=2
CK112 Db:26 CKb:52 6.49019e-18 $lvl1=1 $lvl2=2
CK113 Db:25 CKb:40 5.86834e-18 $lvl1=1 $lvl2=2
CK114 Mmp25:s CKb:37 5.47765e-18 $lvl1=4 $lvl2=2
CK115 Db:15 CKb:41 4.26303e-18 $lvl1=2 $lvl2=2
CK116 Db:14 CKb:40 4.12246e-18 $lvl1=2 $lvl2=2
CK117 Db:26 CKb:40 3.84383e-18 $lvl1=1 $lvl2=2
CK118 Db:11 Mmp20:d 3.44451e-18 $lvl1=2 $lvl2=4
CK119 Db:11 CKb:41 3.40603e-18 $lvl1=2 $lvl2=2
CK120 Db:17 CKb:43 3.18975e-18 $lvl1=2 $lvl2=2
CK121 Mmn25:d CKb:42 2.93244e-18 $lvl1=4 $lvl2=2
CK122 Db:24 CKb:53 2.60976e-18 $lvl1=1 $lvl2=1
CK123 Db:17 CKb:57 2.54343e-18 $lvl1=2 $lvl2=1
CK124 Db:17 CKb:42 2.3576e-18 $lvl1=2 $lvl2=2
CK125 Db:15 CKb:37 2.25136e-18 $lvl1=2 $lvl2=2
CK126 Db:16 CKb:43 2.12176e-18 $lvl1=2 $lvl2=2
CK127 Db:15 CKb:40 2.03611e-18 $lvl1=2 $lvl2=2
CK128 Db:26 CKb:51 1.87967e-18 $lvl1=1 $lvl2=2
CK129 Db:14 CKb:41 1.83255e-18 $lvl1=2 $lvl2=2
CK130 Db:16 CKb:46 1.79233e-18 $lvl1=2 $lvl2=2
CK131 Db:16 CKb:57 1.76309e-18 $lvl1=2 $lvl2=1
CK132 Db:26 CKb:41 1.73017e-18 $lvl1=1 $lvl2=2
CK133 Db:22 CKb:55 1.69365e-18 $lvl1=1 $lvl2=1
CK134 Db:27 CKb:42 1.64888e-18 $lvl1=1 $lvl2=2
CK135 Db:14 CKb:53 1.63486e-18 $lvl1=2 $lvl2=1
CK136 Db:20 CKb:46 1.54043e-18 $lvl1=2 $lvl2=2
CK137 Db:11 CKb:40 1.52663e-18 $lvl1=2 $lvl2=2
CK138 Db:16 Mmn20:d 1.50594e-18 $lvl1=2 $lvl2=4
CK139 Db:27 CKb:43 1.46943e-18 $lvl1=1 $lvl2=2
CK140 Db:20 CKb:42 1.43573e-18 $lvl1=2 $lvl2=2
CK141 Db:24 CKb:37 1.43556e-18 $lvl1=1 $lvl2=2
CK142 Db:27 CKb:24 1.37487e-18 $lvl1=1 $lvl2=3
CK143 Db:14 CKb:37 1.34667e-18 $lvl1=2 $lvl2=2
CK144 Db:23 CKb:55 1.12327e-18 $lvl1=1 $lvl2=1
CK145 Db:22 CKb:57 1.09444e-18 $lvl1=1 $lvl2=1
CK146 Db:20 CKb:43 1.05444e-18 $lvl1=2 $lvl2=2
CK147 Db:23 CKb:53 1.01152e-18 $lvl1=1 $lvl2=1
CK148 Db:27 CKb:51 1.00776e-18 $lvl1=1 $lvl2=2
CK149 Db:15 CKb:53 9.94872e-19 $lvl1=2 $lvl2=1
CK150 Db:25 CKb:55 9.12164e-19 $lvl1=1 $lvl2=1
CK151 Db:15 CKb:52 8.84965e-19 $lvl1=2 $lvl2=2
CK152 Db:16 CKb:50 8.30973e-19 $lvl1=2 $lvl2=2
CK153 Db:16 CKb:52 8.26511e-19 $lvl1=2 $lvl2=2
CK154 Db:26 CKb:57 7.27825e-19 $lvl1=1 $lvl2=1
CK155 Db:20 CKb 7.16726e-19 $lvl1=2 $lvl2=3
CK156 Db:17 CKb:46 7.12181e-19 $lvl1=2 $lvl2=2
CK157 Db:27 CKb:53 6.62046e-19 $lvl1=1 $lvl2=1
CK158 Db:16 CKb:24 6.5639e-19 $lvl1=2 $lvl2=3
CK159 Db:27 CKb:55 3.72182e-17 $lvl1=1 $lvl2=1
CK160 Db:16 CKb 6.5341e-17 $lvl1=2 $lvl2=3
CK161 Db:25 CKb:37 2.00589e-17 $lvl1=1 $lvl2=2
CK162 Db:11 CKb:37 4.41624e-17 $lvl1=2 $lvl2=2
CK163 Db:16 CKb:42 1.67625e-17 $lvl1=2 $lvl2=2
CK164 Db:26 CKb:53 4.21195e-17 $lvl1=1 $lvl2=1
CK165 Db:27 CKb:57 4.47349e-17 $lvl1=1 $lvl2=1
CK166 Db:25 CKb:53 5.16892e-17 $lvl1=1 $lvl2=1
CK167 Db:26 CKb:55 3.89882e-17 $lvl1=1 $lvl2=1
CK168 Db:10 VSS!:14 6.62116e-18 $lvl1=2 $lvl2=2
CK169 Db:10 VSS!:15 6.47631e-18 $lvl1=2 $lvl2=2
CK170 Db:6 VSS!:15 4.04664e-18 $lvl1=2 $lvl2=2
CK171 Db:7 VSS!:37 2.55558e-18 $lvl1=2 $lvl2=1
CK172 Db:20 VSS!:12 2.53537e-18 $lvl1=2 $lvl2=2
CK173 Db:17 VSS!:14 2.42353e-18 $lvl1=2 $lvl2=2
CK174 Mmn25:d VSS!:14 2.33544e-18 $lvl1=4 $lvl2=2
CK175 Db:20 VSS!:37 2.12154e-18 $lvl1=2 $lvl2=1
CK176 Db:17 VSS!:37 2.04547e-18 $lvl1=2 $lvl2=1
CK177 Db:27 VSS!:14 1.9117e-18 $lvl1=1 $lvl2=2
CK178 Db:6 VSS!:14 1.89129e-18 $lvl1=2 $lvl2=2
CK179 Db:10 VSS!:37 1.7775e-18 $lvl1=2 $lvl2=1
CK180 Db:23 VSS!:37 1.71618e-18 $lvl1=1 $lvl2=1
CK181 Db:16 VSS!:6 1.59939e-18 $lvl1=2 $lvl2=4
CK182 Db:22 VSS!:12 1.56626e-18 $lvl1=1 $lvl2=2
CK183 Db:22 VSS!:14 1.37506e-18 $lvl1=1 $lvl2=2
CK184 Db:26 VSS!:37 1.33985e-18 $lvl1=1 $lvl2=1
CK185 Db:17 VSS!:12 1.30337e-18 $lvl1=2 $lvl2=2
CK186 Db:10 VSS!:12 1.2041e-18 $lvl1=2 $lvl2=2
CK187 Db:7 VSS!:14 1.14922e-18 $lvl1=2 $lvl2=2
CK188 Db:7 VSS!:12 1.1124e-18 $lvl1=2 $lvl2=2
CK189 Db:25 VSS!:37 1.11084e-18 $lvl1=1 $lvl2=1
CK190 Db:27 VSS!:12 1.09414e-18 $lvl1=1 $lvl2=2
CK191 Mmn14:d VSS!:15 1.07573e-18 $lvl1=4 $lvl2=2
CK192 Db:22 VSS!:37 4.24218e-17 $lvl1=1 $lvl2=1
CK193 Db:16 VSS!:14 1.16856e-17 $lvl1=2 $lvl2=2
CK194 Db:20 VSS!:14 1.36174e-17 $lvl1=2 $lvl2=2
CK195 Db:27 VSS!:37 3.11826e-17 $lvl1=1 $lvl2=1
ReK270 Db:21 Db:22 0.078804 $metal1  $L=0.145 $W=0.230000 $SI_W=0.23 $TYPE=10 $DIR=1 $LLX=1.435000 $LLY=0.510000 $URX=1.665000 $URY=0.655000 $lvl=1
ReK271 Db:22 Db:23 1.217391 $metal1  $L=2.24 $W=0.230000 $SI_W=0.23 $TYPE=10 $DIR=1 $LLX=1.435000 $LLY=0.655000 $URX=1.665000 $URY=2.895000 $lvl=1
ReK272 Db:23 Db:24 0.217527 $metal1  $L=0.40025 $W=0.230000 $SI_W=0.23 $TYPE=10 $DIR=1 $LLX=1.435000 $LLY=2.895000 $URX=1.665000 $URY=3.295000 $lvl=1
ReK273 Db:24 Db:25 0.983696 $metal1  $L=1.81 $W=0.230000 $SI_W=0.23 $TYPE=10 $DIR=0 $LLX=1.550000 $LLY=3.180000 $URX=3.360000 $URY=3.410000 $lvl=1
ReK274 Db:25 Db:26 0.217527 $metal1  $L=0.40025 $W=0.230000 $SI_W=0.23 $TYPE=10 $DIR=1 $LLX=3.245000 $LLY=2.895000 $URX=3.475000 $URY=3.295000 $lvl=1
ReK275 Db:26 Db:27 1.217391 $metal1  $L=2.24 $W=0.230000 $SI_W=0.23 $TYPE=10 $DIR=1 $LLX=3.245000 $LLY=0.655000 $URX=3.475000 $URY=2.895000 $lvl=1
ReK276 Db:27 Db:28 0.078804 $metal1  $L=0.145 $W=0.230000 $SI_W=0.23 $TYPE=10 $DIR=1 $LLX=3.245000 $LLY=0.510000 $URX=3.475000 $URY=0.655000 $lvl=1
RfK277 Db Db:3 29.364706 $li  $L=0.39 $W=0.170000 $SI_W=0.17 $TYPE=10 $DIR=1 $LLX=1.465000 $LLY=3.355000 $URX=1.635000 $URY=3.745000 $lvl=2
RfK278 Db:3 Db:4 34.635296 $li  $L=0.46 $W=0.170000 $SI_W=0.17 $TYPE=10 $DIR=1 $LLX=1.465000 $LLY=2.895000 $URX=1.635000 $URY=3.355000 $lvl=2
RfK279 Db:4 Db:5 12.423529 $li  $L=0.165 $W=0.170000 $SI_W=0.17 $TYPE=10 $DIR=1 $LLX=1.465000 $LLY=2.730000 $URX=1.635000 $URY=2.895000 $lvl=2
RfK280 Db:6 Db:7 12.423529 $li  $L=0.165 $W=0.170000 $SI_W=0.17 $TYPE=10 $DIR=1 $LLX=1.465000 $LLY=0.655000 $URX=1.635000 $URY=0.820000 $lvl=2
RfK281 Db:7 Db:9 3.764706 $li  $L=0.05 $W=0.170000 $SI_W=0.17 $TYPE=10 $DIR=1 $LLX=1.465000 $LLY=0.605000 $URX=1.635000 $URY=0.655000 $lvl=2
RfK282 Db:9 Db:10 15.811765 $li  $L=0.21 $W=0.170000 $SI_W=0.17 $TYPE=10 $DIR=1 $LLX=1.465000 $LLY=0.395000 $URX=1.635000 $URY=0.605000 $lvl=2
RfK283 Db:11 Db:13 29.364706 $li  $L=0.39 $W=0.170000 $SI_W=0.17 $TYPE=10 $DIR=1 $LLX=3.275000 $LLY=3.355000 $URX=3.445000 $URY=3.745000 $lvl=2
RfK284 Db:13 Db:14 34.635296 $li  $L=0.46 $W=0.170000 $SI_W=0.17 $TYPE=10 $DIR=1 $LLX=3.275000 $LLY=2.895000 $URX=3.445000 $URY=3.355000 $lvl=2
RfK285 Db:14 Db:15 12.423529 $li  $L=0.165 $W=0.170000 $SI_W=0.17 $TYPE=10 $DIR=1 $LLX=3.275000 $LLY=2.730000 $URX=3.445000 $URY=2.895000 $lvl=2
RfK286 Db:16 Db:17 12.423529 $li  $L=0.165 $W=0.170000 $SI_W=0.17 $TYPE=10 $DIR=1 $LLX=3.275000 $LLY=0.655000 $URX=3.445000 $URY=0.820000 $lvl=2
RfK287 Db:17 Db:19 3.764706 $li  $L=0.05 $W=0.170000 $SI_W=0.17 $TYPE=10 $DIR=1 $LLX=3.275000 $LLY=0.605000 $URX=3.445000 $URY=0.655000 $lvl=2
RfK288 Db:19 Db:20 15.811765 $li  $L=0.21 $W=0.170000 $SI_W=0.17 $TYPE=10 $DIR=1 $LLX=3.275000 $LLY=0.395000 $URX=3.445000 $URY=0.605000 $lvl=2
RhK289 Mmn14:d Db:9 15.000000 $licon_diff  $L=0.17 $W=0.17 $A=0.0289 $VC=0 $SAVL=0 $SAVC=0 $SI_A=0.0289 $COVER_DIR=0 $LLX=0.000000 $LLY=0.000000 $URX=0.170000 $URY=0.170000 $lvl=5
RhK290 Mmn25:d Db:19 15.000000 $licon_diff  $L=0.17 $W=0.17 $A=0.0289 $VC=0 $SAVL=0 $SAVC=0 $SI_A=0.0289 $COVER_DIR=0 $LLX=0.000000 $LLY=0.000000 $URX=0.170000 $URY=0.170000 $lvl=5
Rh_2_K291 Mmp12:d Db:3 7.500000 $licon_diff  $A=0.0578 $VC=0 $SAVL=0 $SAVC=0 $SI_A=0.0578 $COVER_DIR=0 $LLX=0.000000 $LLY=0.000000 $URX=-0.057800 $URY=-2.000000 $lvl=5
Rh_2_K292 Mmp25:s Db:13 7.500000 $licon_diff  $A=0.0578 $VC=0 $SAVL=0 $SAVC=0 $SI_A=0.0578 $COVER_DIR=0 $LLX=0.000000 $LLY=0.000000 $URX=-0.057800 $URY=-2.000000 $lvl=5
RjK293 Db:7 Db:22 152.000000 $mcon  $L=0.17 $W=0.17 $A=0.0289 $VC=0 $SAVL=0 $SAVC=0 $SI_A=0.0289 $COVER_DIR=0 $LLX=0.000000 $LLY=0.000000 $URX=0.170000 $URY=0.170000 $lvl=6
RjK294 Db:4 Db:23 152.000000 $mcon  $L=0.17 $W=0.17 $A=0.0289 $VC=0 $SAVL=0 $SAVC=0 $SI_A=0.0289 $COVER_DIR=0 $LLX=0.000000 $LLY=0.000000 $URX=0.170000 $URY=0.170000 $lvl=6
RjK295 Db:14 Db:26 152.000000 $mcon  $L=0.17 $W=0.17 $A=0.0289 $VC=0 $SAVL=0 $SAVC=0 $SI_A=0.0289 $COVER_DIR=0 $LLX=0.000000 $LLY=0.000000 $URX=0.170000 $URY=0.170000 $lvl=6
RjK296 Db:17 Db:27 152.000000 $mcon  $L=0.17 $W=0.17 $A=0.0289 $VC=0 $SAVL=0 $SAVC=0 $SI_A=0.0289 $COVER_DIR=0 $LLX=0.000000 $LLY=0.000000 $URX=0.170000 $URY=0.170000 $lvl=6
RmwK297 Mmp14:d Mmp12:d 0.001000 $diff $W=1000000 $SI_W=1000000 $TYPE=1 $DIR=0
RmwK298 Mmn12:d Mmn14:d 0.001000 $diff $W=1000000 $SI_W=1000000 $TYPE=1 $DIR=0
*
*|NET D 8.63041e-16
*|P (D X 0 0.9350 2.5500) // $llx=0.9350 $lly=2.5500 $urx=0.9350 $ury=2.5500 $lvl=1
*|I (Mmp11:g Mmp11 g X 0 0.9050 3.3550) // $llx=0.9050 $lly=3.3550 $urx=0.9050 $ury=3.3550 $lvl=3
*|I (Mmn11:g Mmn11 g X 0 0.9050 0.6075) // $llx=0.9050 $lly=0.6075 $urx=0.9050 $ury=0.6075 $lvl=3
*|S (D:8 0.9050 3.8950) // $llx=0.9050 $lly=3.8950 $urx=0.9050 $ury=3.8950 $lvl=3
*|S (D:9 0.9050 2.1150) // $llx=0.9050 $lly=2.1150 $urx=0.9050 $ury=2.1150 $lvl=3
*|S (D:10 0.9050 1.9500) // $llx=0.9050 $lly=1.9500 $urx=0.9050 $ury=1.9500 $lvl=3
*|S (D:11 0.9050 0.2450) // $llx=0.9050 $lly=0.2450 $urx=0.9050 $ury=0.2450 $lvl=3
*|S (D:12 1.2850 2.1150) // $llx=1.2850 $lly=2.1150 $urx=1.2850 $ury=2.1150 $lvl=2
*|S (D:13 0.9200 2.1150) // $llx=0.9200 $lly=2.1150 $urx=0.9200 $ury=2.1150 $lvl=2
*|S (D:14 0.9050 2.1150) // $llx=0.9050 $lly=2.1150 $urx=0.9050 $ury=2.1150 $lvl=2
*|S (D:15 0.9200 3.1950) // $llx=0.9200 $lly=3.1950 $urx=0.9200 $ury=3.1950 $lvl=1
*|S (D:16 0.9200 2.1150) // $llx=0.9200 $lly=2.1150 $urx=0.9200 $ury=2.1150 $lvl=1
*|S (D:17 0.9200 1.9550) // $llx=0.9200 $lly=1.9550 $urx=0.9200 $ury=1.9550 $lvl=1
CB1 Mmn11:g VSS! 2.94842e-18 $lvl=3
CB2 D:16 VSS! 6.05429e-18 $lvl=1
CB3 D:15 VSS! 7.95747e-18 $lvl=1
CB4 D:8 VSS! 1.90213e-18 $lvl=3
CB5 D:14 VSS! 5.4508e-18 $lvl=2
CB6 D:13 VSS! 2.00268e-18 $lvl=2
CB7 D:9 VSS! 1.36333e-17 $lvl=3
CB8 D:8 net433:4 1.16652e-18 $lvl1=3 $lvl2=2
CB9 D:9 net433:4 7.21296e-19 $lvl1=3 $lvl2=2
CB10 D:9 net433:3 4.33398e-19 $lvl1=3 $lvl2=2
CB11 D:15 net433:3 1.10972e-17 $lvl1=1 $lvl2=2
CB12 Mmn11:g net494:3 6.59366e-17 $lvl1=3 $lvl2=2
CB13 D:8 net433:3 6.92507e-17 $lvl1=3 $lvl2=2
CB14 D:15 net433:4 6.6956e-18 $lvl1=1 $lvl2=2
CB15 D:16 Db:22 3.08208e-18 $lvl1=1 $lvl2=1