*
*|DSPF 1.5
*
*|DATE "Wed Jan  8 19:37:16 2025"
*|VENDOR "Cadence Design Systems"
*|PROGRAM "Cadence Quantus Extraction"
*|VERSION "22.1.0-p089 Linux 64 bit - (Thu Jan 19 11:47:08 PST 2023)"
*|DESIGN SDFFRX1_HS
*|DIVIDER /
*|DELIMITER :
*|DeviceFingerDelim "@"
*|BUSBIT []
*|GLOBAL_TEMPERATURE 25
*|OPERATING_TEMPERATURE 25

** *VIA_COVERAGE_CODES
** *index FF FS FP FU SF SS SP SU PF PS PP PU UF US UP UU X_by_Y
** * "FF" stands for Full landing and Full coverage
** *0 0 0 0 0 0 0 0 0 0 0 0 0 0 0 0 0
** *1 0 0 0 0 0 0 0 0 0 0 0 0 0 0 0 1 1x1
** *2 0 0 0 0 0 0 0 0 0 0 0 0 0 0 1 0 1x1
** *3 0 0 0 0 0 0 0 0 0 0 0 0 0 1 0 0 1x1
** *4 0 0 0 0 0 0 0 0 0 0 0 0 1 0 0 0 1x1
** *5 0 0 0 0 0 0 0 0 0 0 0 1 0 0 0 0 1x1
** *6 0 0 0 0 0 0 0 0 0 0 1 0 0 0 0 0 1x1
** *7 0 0 0 0 0 0 0 0 0 1 0 0 0 0 0 0 1x1
** *8 0 0 0 0 0 0 0 0 1 0 0 0 0 0 0 0 1x1
** *9 0 0 0 0 0 0 0 1 0 0 0 0 0 0 0 0 1x1
** *10 0 0 0 0 0 0 1 0 0 0 0 0 0 0 0 0 1x1
** *11 0 0 0 0 0 1 0 0 0 0 0 0 0 0 0 0 1x1
** *12 0 0 0 0 1 0 0 0 0 0 0 0 0 0 0 0 1x1
** *13 0 0 0 1 0 0 0 0 0 0 0 0 0 0 0 0 1x1
** *14 0 0 1 0 0 0 0 0 0 0 0 0 0 0 0 0 1x1
** *15 0 1 0 0 0 0 0 0 0 0 0 0 0 0 0 0 1x1
** *16 1 0 0 0 0 0 0 0 0 0 0 0 0 0 0 0 1x1

** *RESISTOR_TYPES
** *1 SHORTING_ELEMENT
** *2 PRES_NG
** *3 PRES_PG
** *4 PRES_NF
** *5 PRES_PF
** *6 TCN_NDIFF
** *7 TCN_PDIFF
** *8 TCN_NFIELD
** *9 TCN_PFIELD
** *10 QUALITY_EXTRACTED
** *11 GCNLAND
** *12 TCNLAND
** *13 DUMMY
** *14 RSD
** *15 BRIDGE

** *RESISTOR_CURRENT_DIRECTION
** *0 HORIZONTAL
** *1 VERTICAL
** *2 45 DEGREE

** QRC_TECH_DIR /vols/wfo_devel/projects/reference_SKY130/tech/sky130_release_0.0.4/quantus/extraction/typical 
** HIERARCHICAL_SPLIT_PINS_DELIMITER '%'
** caps2d version: 10
*
.SUBCKT  SDFFRX1_HS CK D Q QN RN SE SI
*
*Net Section
*
*|GROUND_NET VSS!
*
*LAYER_MAP
*0 none
*1 metal1
*2 li
*3 poly
*4 diff
*5 licon_diff
*6 mcon
*7 licon
*8 FOX

*|NET VDD! 6.3265e-15
*|P (VDD! X 0 4.8250 4.1450) // $llx=4.8250 $lly=4.1450 $urx=4.8250 $ury=4.1450 $lvl=1
*|I (Mmp30:s Mmp30 s X 0 6.1695 3.3550) // $llx=6.1695 $lly=3.3550 $urx=6.1695 $ury=3.3550 $lvl=4
*|I (Mmp30:b Mmp30 b X 0 6.2450 3.3550) // $llx=6.2450 $lly=3.3550 $urx=6.2450 $ury=3.3550 $lvl=8
*|I (Mmp50:s Mmp50 s X 0 7.6105 3.3550) // $llx=7.6105 $lly=3.3550 $urx=7.6105 $ury=3.3550 $lvl=4
*|I (Mmp50:b Mmp50 b X 0 7.5350 3.3550) // $llx=7.5350 $lly=3.3550 $urx=7.5350 $ury=3.3550 $lvl=8
*|I (Mmp51:b Mmp51 b X 0 7.1050 3.3550) // $llx=7.1050 $lly=3.3550 $urx=7.1050 $ury=3.3550 $lvl=8
*|I (Mmp14:b Mmp14 b X 0 1.7650 3.3550) // $llx=1.7650 $lly=3.3550 $urx=1.7650 $ury=3.3550 $lvl=8
*|I (Mmp45:s Mmp45 s X 0 8.4095 3.3550) // $llx=8.4095 $lly=3.3550 $urx=8.4095 $ury=3.3550 $lvl=4
*|I (Mmp45:b Mmp45 b X 0 8.4850 3.3550) // $llx=8.4850 $lly=3.3550 $urx=8.4850 $ury=3.3550 $lvl=8
*|I (Mmp25:b Mmp25 b X 0 3.5750 3.3550) // $llx=3.5750 $lly=3.3550 $urx=3.5750 $ury=3.3550 $lvl=8
*|I (Mmp37:b Mmp37 b X 0 4.0050 3.3550) // $llx=4.0050 $lly=3.3550 $urx=4.0050 $ury=3.3550 $lvl=8
*|I (Mmp57:s Mmp57 s X 0 10.3705 3.0150) // $llx=10.3705 $lly=3.0150 $urx=10.3705 $ury=3.0150 $lvl=4
*|I (Mmp57:b Mmp57 b X 0 10.2950 3.0150) // $llx=10.2950 $lly=3.0150 $urx=10.2950 $ury=3.0150 $lvl=8
*|I (Mmp11:s Mmp11 s X 0 0.8295 3.3550) // $llx=0.8295 $lly=3.3550 $urx=0.8295 $ury=3.3550 $lvl=4
*|I (Mmp11:b Mmp11 b X 0 0.9050 3.3550) // $llx=0.9050 $lly=3.3550 $urx=0.9050 $ury=3.3550 $lvl=8
*|I (Mmp46:s Mmp46 s X 0 8.9905 3.3550) // $llx=8.9905 $lly=3.3550 $urx=8.9905 $ury=3.3550 $lvl=4
*|I (Mmp46:b Mmp46 b X 0 8.9150 3.3550) // $llx=8.9150 $lly=3.3550 $urx=8.9150 $ury=3.3550 $lvl=8
*|I (Mmp56:s Mmp56 s X 0 9.2695 3.3550) // $llx=9.2695 $lly=3.3550 $urx=9.2695 $ury=3.3550 $lvl=4
*|I (Mmp56:b Mmp56 b X 0 9.3450 3.3550) // $llx=9.3450 $lly=3.3550 $urx=9.3450 $ury=3.3550 $lvl=8
*|I (Mmp35:s Mmp35 s X 0 4.7895 3.3550) // $llx=4.7895 $lly=3.3550 $urx=4.7895 $ury=3.3550 $lvl=4
*|I (Mmp35:b Mmp35 b X 0 4.8650 3.3550) // $llx=4.8650 $lly=3.3550 $urx=4.8650 $ury=3.3550 $lvl=8
*|I (Mmp20:s Mmp20 s X 0 2.5495 3.3550) // $llx=2.5495 $lly=3.3550 $urx=2.5495 $ury=3.3550 $lvl=4
*|I (Mmp20:b Mmp20 b X 0 2.6250 3.3550) // $llx=2.6250 $lly=3.3550 $urx=2.6250 $ury=3.3550 $lvl=8
*|I (Mmp36:s Mmp36 s X 0 4.5105 3.3550) // $llx=4.5105 $lly=3.3550 $urx=4.5105 $ury=3.3550 $lvl=4
*|I (Mmp36:b Mmp36 b X 0 4.4350 3.3550) // $llx=4.4350 $lly=3.3550 $urx=4.4350 $ury=3.3550 $lvl=8
*|I (Mmp13:s Mmp13 s X 0 2.2705 3.3550) // $llx=2.2705 $lly=3.3550 $urx=2.2705 $ury=3.3550 $lvl=4
*|I (Mmp13:b Mmp13 b X 0 2.1950 3.3550) // $llx=2.1950 $lly=3.3550 $urx=2.1950 $ury=3.3550 $lvl=8
*|I (Mmp21:s Mmp21 s X 0 5.8905 3.3550) // $llx=5.8905 $lly=3.3550 $urx=5.8905 $ury=3.3550 $lvl=4
*|I (Mmp21:b Mmp21 b X 0 5.8150 3.3550) // $llx=5.8150 $lly=3.3550 $urx=5.8150 $ury=3.3550 $lvl=8
*|I (Mmp10:s Mmp10 s X 0 0.5505 3.3550) // $llx=0.5505 $lly=3.3550 $urx=0.5505 $ury=3.3550 $lvl=4
*|I (Mmp10:b Mmp10 b X 0 0.4750 3.3550) // $llx=0.4750 $lly=3.3550 $urx=0.4750 $ury=3.3550 $lvl=8
*|I (Mmp40:b Mmp40 b X 0 6.6750 3.3550) // $llx=6.6750 $lly=3.3550 $urx=6.6750 $ury=3.3550 $lvl=8
*|I (Mmp12:b Mmp12 b X 0 1.3350 3.3550) // $llx=1.3350 $lly=3.3550 $urx=1.3350 $ury=3.3550 $lvl=8
*|I (Mmp55:s Mmp55 s X 0 10.6495 3.0150) // $llx=10.6495 $lly=3.0150 $urx=10.6495 $ury=3.0150 $lvl=4
*|I (Mmp55:b Mmp55 b X 0 10.7250 3.0150) // $llx=10.7250 $lly=3.0150 $urx=10.7250 $ury=3.0150 $lvl=8
*|S (VDD!:1 0.6900 2.9650) // $llx=0.6900 $lly=2.9650 $urx=0.6900 $ury=2.9650 $lvl=2
*|S (VDD!:3 0.6900 3.3550) // $llx=0.6900 $lly=3.3550 $urx=0.6900 $ury=3.3550 $lvl=2
*|S (VDD!:4 0.6900 4.1400) // $llx=0.6900 $lly=4.1400 $urx=0.6900 $ury=4.1400 $lvl=2
*|S (VDD!:5 2.4100 4.1400) // $llx=2.4100 $lly=4.1400 $urx=2.4100 $ury=4.1400 $lvl=2
*|S (VDD!:6 3.6800 4.1400) // $llx=3.6800 $lly=4.1400 $urx=3.6800 $ury=4.1400 $lvl=2
*|S (VDD!:7 3.6800 4.1400) // $llx=3.6800 $lly=4.1400 $urx=3.6800 $ury=4.1400 $lvl=4
*|S (VDD!:9 4.6500 4.1400) // $llx=4.6500 $lly=4.1400 $urx=4.6500 $ury=4.1400 $lvl=2
*|S (VDD!:10 6.0300 4.1400) // $llx=6.0300 $lly=4.1400 $urx=6.0300 $ury=4.1400 $lvl=2
*|S (VDD!:11 7.7500 4.1400) // $llx=7.7500 $lly=4.1400 $urx=7.7500 $ury=4.1400 $lvl=2
*|S (VDD!:12 8.2700 4.1400) // $llx=8.2700 $lly=4.1400 $urx=8.2700 $ury=4.1400 $lvl=2
*|S (VDD!:13 9.2000 4.1400) // $llx=9.2000 $lly=4.1400 $urx=9.2000 $ury=4.1400 $lvl=2
*|S (VDD!:15 0.0000 4.1400) // $llx=0.0000 $lly=4.1400 $urx=0.0000 $ury=4.1400 $lvl=2
*|S (VDD!:17 2.4100 3.3550) // $llx=2.4100 $lly=3.3550 $urx=2.4100 $ury=3.3550 $lvl=2
*|S (VDD!:18 2.4100 2.9650) // $llx=2.4100 $lly=2.9650 $urx=2.4100 $ury=2.9650 $lvl=2
*|S (VDD!:20 4.6500 3.3550) // $llx=4.6500 $lly=3.3550 $urx=4.6500 $ury=3.3550 $lvl=2
*|S (VDD!:21 4.6500 2.9650) // $llx=4.6500 $lly=2.9650 $urx=4.6500 $ury=2.9650 $lvl=2
*|S (VDD!:23 6.0300 3.3550) // $llx=6.0300 $lly=3.3550 $urx=6.0300 $ury=3.3550 $lvl=2
*|S (VDD!:24 6.0300 2.9650) // $llx=6.0300 $lly=2.9650 $urx=6.0300 $ury=2.9650 $lvl=2
*|S (VDD!:26 7.7500 3.3550) // $llx=7.7500 $lly=3.3550 $urx=7.7500 $ury=3.3550 $lvl=2
*|S (VDD!:27 7.7500 2.9650) // $llx=7.7500 $lly=2.9650 $urx=7.7500 $ury=2.9650 $lvl=2
*|S (VDD!:29 8.2700 3.3550) // $llx=8.2700 $lly=3.3550 $urx=8.2700 $ury=3.3550 $lvl=2
*|S (VDD!:30 8.2700 2.9650) // $llx=8.2700 $lly=2.9650 $urx=8.2700 $ury=2.9650 $lvl=2
*|S (VDD!:32 9.1300 3.3550) // $llx=9.1300 $lly=3.3550 $urx=9.1300 $ury=3.3550 $lvl=2
*|S (VDD!:33 9.1300 2.9650) // $llx=9.1300 $lly=2.9650 $urx=9.1300 $ury=2.9650 $lvl=2
*|S (VDD!:34 10.5100 4.1400) // $llx=10.5100 $lly=4.1400 $urx=10.5100 $ury=4.1400 $lvl=2
*|S (VDD!:36 10.5100 3.0150) // $llx=10.5100 $lly=3.0150 $urx=10.5100 $ury=3.0150 $lvl=2
*|S (VDD!:37 10.5100 2.2850) // $llx=10.5100 $lly=2.2850 $urx=10.5100 $ury=2.2850 $lvl=2
*|S (VDD!:38 11.4995 4.1400) // $llx=11.4995 $lly=4.1400 $urx=11.4995 $ury=4.1400 $lvl=2
*|S (VDD!:39 11.5000 4.1400) // $llx=11.5000 $lly=4.1400 $urx=11.5000 $ury=4.1400 $lvl=1
*|S (VDD!:40 9.2000 4.1400) // $llx=9.2000 $lly=4.1400 $urx=9.2000 $ury=4.1400 $lvl=1
*|S (VDD!:41 3.6800 4.1400) // $llx=3.6800 $lly=4.1400 $urx=3.6800 $ury=4.1400 $lvl=1
*|S (VDD!:42 0.0000 4.1400) // $llx=0.0000 $lly=4.1400 $urx=0.0000 $ury=4.1400 $lvl=1
CH1 Mmp20:s VSS! 2.33812e-18 $lvl=4
CH2 Mmp35:s VSS! 1.37424e-18 $lvl=4
CH3 Mmp46:s VSS! 1.83814e-18 $lvl=4
CH4 Mmp11:s VSS! 1.75206e-18 $lvl=4
CH5 Mmp57:s VSS! 1.68145e-18 $lvl=4
CH6 Mmp45:s VSS! 1.66973e-18 $lvl=4
CH7 Mmp50:s VSS! 2.10657e-18 $lvl=4
CH8 Mmp30:s VSS! 2.44328e-18 $lvl=4
CH9 VDD!:41 VSS! 2.92528e-17 $lvl=1
CH10 VDD!:40 VSS! 2.58335e-17 $lvl=1
CH11 VDD!:39 VSS! 7.63414e-18 $lvl=1
CH12 VDD!:42 VSS! 8.35345e-18 $lvl=1
CH13 VDD!:36 VSS! 3.4778e-18 $lvl=2
CH14 VDD!:29 VSS! 4.50569e-18 $lvl=2
CH15 VDD!:1 VSS! 3.22029e-18 $lvl=2
CH16 VDD!:18 VSS! 6.64325e-18 $lvl=2
CH17 VDD!:21 VSS! 5.3489e-18 $lvl=2
CH18 VDD!:24 VSS! 7.00973e-18 $lvl=2
CH19 VDD!:27 VSS! 8.72865e-18 $lvl=2
CH20 VDD!:33 VSS! 4.44759e-18 $lvl=2
CH21 VDD!:38 VSS! 3.20784e-18 $lvl=2
CH22 VDD!:12 VSS! 2.94504e-18 $lvl=2
CH23 VDD!:11 VSS! 4.77813e-18 $lvl=2
CH24 VDD!:10 VSS! 3.90908e-18 $lvl=2
CH25 VDD!:5 VSS! 6.62395e-18 $lvl=2
CH26 VDD!:4 VSS! 3.95429e-18 $lvl=2
CH27 VDD!:15 VSS! 3.55231e-18 $lvl=2
CH28 VDD!:7 VSS! 6.95319e-18 $lvl=4
CH29 VDD!:6 VSS! 5.97308e-18 $lvl=2
CH30 VDD!:13 VSS! 7.11657e-18 $lvl=2
CH31 VDD! VSS! 2.63142e-17 $lvl=1
CH32 VDD!:10 n6:6 4.64035e-18 $lvl1=2 $lvl2=2
CH33 VDD!:21 n6:9 4.18753e-18 $lvl1=2 $lvl2=2
CH34 VDD!:21 n6:11 3.79486e-18 $lvl1=2 $lvl2=1
CH35 VDD!:21 n6:14 3.70265e-18 $lvl1=2 $lvl2=1
CH36 VDD!:6 n6:6 3.55329e-18 $lvl1=2 $lvl2=2
CH37 VDD!:6 n6:3 2.92417e-18 $lvl1=2 $lvl2=2
CH38 VDD! n6:11 2.848e-18 $lvl1=1 $lvl2=1
CH39 VDD!:41 n6:14 2.82307e-18 $lvl1=1 $lvl2=1
CH40 VDD! n6:14 2.74222e-18 $lvl1=1 $lvl2=1
CH41 VDD!:41 n6:11 2.72819e-18 $lvl1=1 $lvl2=1
CH42 VDD! n6:10 1.76423e-18 $lvl1=1 $lvl2=2
CH43 VDD!:5 Mmp35:d 1.7189e-18 $lvl1=2 $lvl2=4
CH44 VDD!:7 n6:6 1.64076e-18 $lvl1=4 $lvl2=2
CH45 VDD! n6:3 1.61838e-18 $lvl1=1 $lvl2=2
CH46 VDD!:5 Mmp37:s 1.5338e-18 $lvl1=2 $lvl2=4
CH47 VDD! n6:4 1.3805e-18 $lvl1=1 $lvl2=2
CH48 Mmp35:s n6:6 9.957e-19 $lvl1=4 $lvl2=2
CH49 VDD!:21 Mmp37:s 8.95567e-19 $lvl1=2 $lvl2=4
CH50 VDD!:21 n6:4 1.01155e-17 $lvl1=2 $lvl2=2
CH51 VDD! n6:6 1.16865e-17 $lvl1=1 $lvl2=2
CH52 VDD!:5 n6:6 2.08829e-17 $lvl1=2 $lvl2=2
CH53 VDD!:5 n6:3 2.28908e-17 $lvl1=2 $lvl2=2
CH54 VDD!:41 n6:3 5.88775e-18 $lvl1=1 $lvl2=2
CH55 VDD!:21 n6:6 5.00833e-17 $lvl1=2 $lvl2=2
CH56 VDD!:21 n6:10 5.85432e-18 $lvl1=2 $lvl2=2
CH57 VDD!:41 n6:6 6.5e-18 $lvl1=1 $lvl2=2
CH58 VDD!:21 n6:3 4.86167e-17 $lvl1=2 $lvl2=2
CH59 VDD!:41 n8:3 1.37965e-18 $lvl1=1 $lvl2=2
CH60 VDD!:27 Mmp50:d 1.04357e-18 $lvl1=2 $lvl2=4
CH61 VDD! n8:4 9.24351e-19 $lvl1=1 $lvl2=2
CH62 VDD!:29 n8:3 9.13692e-19 $lvl1=2 $lvl2=2
CH63 VDD!:13 n8:3 6.25695e-19 $lvl1=2 $lvl2=2
CH64 VDD!:40 n8:4 4.64864e-19 $lvl1=1 $lvl2=2
CH65 VDD!:29 n8:4 4.45352e-19 $lvl1=2 $lvl2=2
CH66 VDD!:10 n8:3 3.66975e-19 $lvl1=2 $lvl2=2
CH67 VDD!:27 n8:3 3.60627e-17 $lvl1=2 $lvl2=2
CH68 VDD!:11 n8:3 2.88156e-18 $lvl1=2 $lvl2=2
CH69 VDD! n8:3 1.88515e-18 $lvl1=1 $lvl2=2
CH70 VDD!:27 n8:4 5.15758e-18 $lvl1=2 $lvl2=2
CH71 VDD!:11 Mmp50:d 1.72277e-18 $lvl1=2 $lvl2=4
CH72 VDD!:40 n8:3 3.22707e-18 $lvl1=1 $lvl2=2
CH73 VDD! n4:4 1.10094e-18 $lvl1=1 $lvl2=2
CH74 VDD!:18 Mmp14:s 1.00259e-18 $lvl1=2 $lvl2=4
CH75 VDD!:41 n4:3 8.82702e-19 $lvl1=1 $lvl2=2
CH76 VDD! n2:4 1.19267e-18 $lvl1=1 $lvl2=2
CH77 VDD!:6 n2:3 6.67224e-19 $lvl1=2 $lvl2=2
CH78 VDD!:1 Mmp11:d 6.0978e-19 $lvl1=2 $lvl2=4
CH79 VDD!:5 n4:3 2.67764e-18 $lvl1=2 $lvl2=2
CH80 VDD!:1 n2:4 4.60424e-18 $lvl1=2 $lvl2=2
CH81 VDD!:1 n2:3 3.48326e-17 $lvl1=2 $lvl2=2
CH82 VDD!:4 Mmp11:d 2.04577e-18 $lvl1=2 $lvl2=4
CH83 VDD! n4:3 4.30513e-18 $lvl1=1 $lvl2=2
CH84 VDD!:5 Mmp14:s 1.53434e-18 $lvl1=2 $lvl2=4
CH85 VDD!:4 n2:3 2.98023e-18 $lvl1=2 $lvl2=2
CH86 VDD!:18 n4:4 5.13346e-18 $lvl1=2 $lvl2=2
CH87 VDD! n2:3 4.46287e-18 $lvl1=1 $lvl2=2
CH88 VDD!:41 n2:3 2.25132e-18 $lvl1=1 $lvl2=2
CH89 VDD!:18 n4:3 3.4224e-17 $lvl1=2 $lvl2=2
CH90 VDD! qint:27 8.13808e-18 $lvl1=1 $lvl2=1
CH91 VDD!:33 qint:27 7.28298e-18 $lvl1=2 $lvl2=1
CH92 VDD! qint:29 6.66939e-18 $lvl1=1 $lvl2=1
CH93 VDD!:33 qint:21 5.77106e-18 $lvl1=2 $lvl2=2
CH94 VDD! qint:22 4.68762e-18 $lvl1=1 $lvl2=2
CH95 VDD! qint:30 3.42068e-18 $lvl1=1 $lvl2=1
CH96 VDD! qint:18 2.62256e-18 $lvl1=1 $lvl2=2
CH97 VDD!:7 qint:18 2.02659e-18 $lvl1=4 $lvl2=2
CH98 VDD!:13 Mmp56:d 1.96797e-18 $lvl1=2 $lvl2=4
CH99 VDD! qint:32 1.94137e-18 $lvl1=1 $lvl2=1
CH100 VDD! qint:10 1.4406e-18 $lvl1=1 $lvl2=3
CH101 VDD!:40 qint:29 1.38084e-18 $lvl1=1 $lvl2=1
CH102 VDD!:13 qint:27 1.10392e-18 $lvl1=2 $lvl2=1
CH103 VDD!:36 qint:18 6.48153e-19 $lvl1=2 $lvl2=2
CH104 VDD!:40 qint:22 6.22414e-19 $lvl1=1 $lvl2=2
CH105 VDD! qint:26 6.00526e-19 $lvl1=1 $lvl2=2
CH106 VDD!:36 qint:10 5.90489e-19 $lvl1=2 $lvl2=3
CH107 VDD!:41 qint:27 5.65734e-19 $lvl1=1 $lvl2=1
CH108 VDD!:33 qint:18 3.48894e-17 $lvl1=2 $lvl2=2
CH109 VDD!:13 qint:18 3.10408e-17 $lvl1=2 $lvl2=2
CH110 VDD!:40 qint:27 1.28329e-17 $lvl1=1 $lvl2=1
CH111 VDD!:13 qint:8 1.02127e-17 $lvl1=2 $lvl2=3
CH112 VDD!:36 qint:8 2.55409e-16 $lvl1=2 $lvl2=3
CH113 VDD!:33 qint:22 2.03282e-17 $lvl1=2 $lvl2=2
CH114 VDD!:40 qint:18 1.04628e-17 $lvl1=1 $lvl2=2
CH115 VDD!:36 qbint:47 9.25815e-18 $lvl1=2 $lvl2=2
CH116 VDD!:11 qbint:22 9.02856e-18 $lvl1=2 $lvl2=3
CH117 VDD!:13 qbint:27 8.90945e-18 $lvl1=2 $lvl2=3
CH118 VDD!:29 qbint:59 8.36901e-18 $lvl1=2 $lvl2=1
CH119 VDD! qbint:57 8.04733e-18 $lvl1=1 $lvl2=1
CH120 VDD! qbint:34 7.53762e-18 $lvl1=1 $lvl2=3
CH121 VDD!:33 qbint:59 7.49711e-18 $lvl1=2 $lvl2=1
CH122 VDD! qbint:42 7.32551e-18 $lvl1=1 $lvl2=2
CH123 VDD!:29 qbint:46 6.93275e-18 $lvl1=2 $lvl2=2
CH124 VDD! qbint:52 6.86701e-18 $lvl1=1 $lvl2=2
CH125 VDD!:33 qbint:46 6.46298e-18 $lvl1=2 $lvl2=2
CH126 VDD!:13 qbint:32 6.40429e-18 $lvl1=2 $lvl2=3
CH127 VDD! qbint:59 6.22419e-18 $lvl1=1 $lvl2=1
CH128 VDD!:29 qbint:45 4.2255e-18 $lvl1=2 $lvl2=2
CH129 VDD!:36 qbint:34 4.14514e-18 $lvl1=2 $lvl2=3
CH130 VDD!:33 qbint:45 3.91549e-18 $lvl1=2 $lvl2=2
CH131 VDD! qbint:56 3.47621e-18 $lvl1=1 $lvl2=1
CH132 VDD!:38 qbint:32 3.19099e-18 $lvl1=2 $lvl2=3
CH133 VDD!:40 qbint:57 3.14666e-18 $lvl1=1 $lvl2=1
CH134 VDD! qbint:47 2.94051e-18 $lvl1=1 $lvl2=2
CH135 VDD! qbint:46 2.92084e-18 $lvl1=1 $lvl2=2
CH136 VDD! qbint:55 2.79893e-18 $lvl1=1 $lvl2=1
CH137 VDD! qbint:54 2.55537e-18 $lvl1=1 $lvl2=2
CH138 VDD!:27 qbint:59 2.55503e-18 $lvl1=2 $lvl2=1
CH139 VDD!:29 qbint:52 2.28021e-18 $lvl1=2 $lvl2=2
CH140 VDD!:36 qbint:49 2.02655e-18 $lvl1=2 $lvl2=2
CH141 VDD! qbint:51 1.81574e-18 $lvl1=1 $lvl2=2
CH142 VDD!:12 Mmp45:d 1.62029e-18 $lvl1=2 $lvl2=4
CH143 VDD!:29 qbint:57 1.35067e-18 $lvl1=2 $lvl2=1
CH144 VDD!:29 qbint:22 1.23344e-18 $lvl1=2 $lvl2=3
CH145 VDD!:33 qbint:51 1.22795e-18 $lvl1=2 $lvl2=2
CH146 VDD!:33 qbint:52 1.17117e-18 $lvl1=2 $lvl2=2
CH147 VDD!:13 qbint:59 1.16609e-18 $lvl1=2 $lvl2=1
CH148 Mmp45:s qbint:42 1.15203e-18 $lvl1=4 $lvl2=2
CH149 VDD!:33 qbint:29 1.0508e-18 $lvl1=2 $lvl2=3
CH150 VDD!:27 qbint:24 9.93627e-19 $lvl1=2 $lvl2=3
CH151 VDD!:27 qbint:42 9.66202e-19 $lvl1=2 $lvl2=2
CH152 VDD!:41 qbint:57 9.5942e-19 $lvl1=1 $lvl2=1
CH153 VDD!:33 Mmp45:d 9.30492e-19 $lvl1=2 $lvl2=4
CH154 VDD!:41 qbint:59 8.97449e-19 $lvl1=1 $lvl2=1
CH155 VDD!:29 Mmp45:d 8.75032e-19 $lvl1=2 $lvl2=4
CH156 VDD!:33 qbint:57 8.26538e-19 $lvl1=2 $lvl2=1
CH157 VDD!:7 qbint:42 8.18183e-19 $lvl1=4 $lvl2=2
CH158 Mmp57:s qbint:34 8.02031e-19 $lvl1=4 $lvl2=3
CH159 VDD! qbint:49 7.95053e-19 $lvl1=1 $lvl2=2
CH160 VDD! qbint:50 7.79392e-19 $lvl1=1 $lvl2=2
CH161 VDD!:29 qbint:54 7.74143e-19 $lvl1=2 $lvl2=2
CH162 VDD!:29 qbint:24 7.49709e-19 $lvl1=2 $lvl2=3
CH163 VDD!:27 qbint:46 6.69958e-19 $lvl1=2 $lvl2=2
CH164 Mmp46:s qbint:42 6.69827e-19 $lvl1=4 $lvl2=2
CH165 VDD!:40 qbint:59 1.43294e-17 $lvl1=1 $lvl2=1
CH166 VDD!:33 qbint:27 1.29701e-16 $lvl1=2 $lvl2=3
CH167 VDD!:36 qbint:32 2.51954e-16 $lvl1=2 $lvl2=3
CH168 VDD!:13 qbint:42 1.14455e-17 $lvl1=2 $lvl2=2
CH169 VDD! qbint:24 1.1029e-17 $lvl1=1 $lvl2=3
CH170 VDD! qbint:29 1.02419e-17 $lvl1=1 $lvl2=3
CH171 VDD!:40 qbint:42 1.0076e-17 $lvl1=1 $lvl2=2
CH172 VDD!:27 qbint:22 1.36228e-16 $lvl1=2 $lvl2=3
CH173 VDD!:29 qbint:42 4.96826e-17 $lvl1=2 $lvl2=2
CH174 VDD!:33 qbint:42 5.04117e-17 $lvl1=2 $lvl2=2
CH175 VDD!:12 qbint:42 1.37933e-17 $lvl1=2 $lvl2=2
CH176 VDD!:41 n30:33 7.13734e-18 $lvl1=1 $lvl2=1
CH177 VDD!:41 n30:14 6.89917e-18 $lvl1=1 $lvl2=2
CH178 VDD!:40 n30:33 6.14689e-18 $lvl1=1 $lvl2=1
CH179 VDD! n30:33 5.37921e-18 $lvl1=1 $lvl2=1
CH180 VDD! n30:9 5.1827e-18 $lvl1=1 $lvl2=3
CH181 VDD! n30:30 4.90238e-18 $lvl1=1 $lvl2=1
CH182 VDD! n30:34 4.54224e-18 $lvl1=1 $lvl2=1
CH183 VDD!:13 n30:8 4.28899e-18 $lvl1=2 $lvl2=3
CH184 VDD!:27 n30:14 3.52202e-18 $lvl1=2 $lvl2=2
CH185 VDD!:40 n30:14 3.3881e-18 $lvl1=1 $lvl2=2
CH186 VDD!:12 n30:8 3.34466e-18 $lvl1=2 $lvl2=3
CH187 VDD!:6 n30:14 3.16458e-18 $lvl1=2 $lvl2=2
CH188 VDD!:27 n30:33 2.17718e-18 $lvl1=2 $lvl2=1
CH189 VDD! n30:29 1.90425e-18 $lvl1=1 $lvl2=1
CH190 VDD!:10 Mmp51:d 1.82399e-18 $lvl1=2 $lvl2=4
CH191 VDD! n30:27 1.75651e-18 $lvl1=1 $lvl2=2
CH192 VDD! n30:24 1.74371e-18 $lvl1=1 $lvl2=2
CH193 VDD! n30:14 1.58697e-18 $lvl1=1 $lvl2=2
CH194 VDD! n30:18 1.20012e-18 $lvl1=1 $lvl2=2
CH195 VDD!:13 n30:14 1.15717e-18 $lvl1=2 $lvl2=2
CH196 VDD!:41 n30:30 1.0736e-18 $lvl1=1 $lvl2=1
CH197 VDD!:40 n30:30 1.06248e-18 $lvl1=1 $lvl2=1
CH198 VDD!:29 n30:33 9.88232e-19 $lvl1=2 $lvl2=1
CH199 VDD!:24 n30:14 7.8609e-19 $lvl1=2 $lvl2=2
CH200 VDD!:29 n30:8 7.45852e-19 $lvl1=2 $lvl2=3
CH201 VDD!:7 n30:14 6.64679e-19 $lvl1=4 $lvl2=2
CH202 VDD!:40 n30:29 5.5257e-19 $lvl1=1 $lvl2=1
CH203 VDD!:11 n30:14 1.19961e-17 $lvl1=2 $lvl2=2
CH204 VDD!:10 n30:14 1.46107e-17 $lvl1=2 $lvl2=2
CH205 VDD!:33 n30:8 1.27441e-16 $lvl1=2 $lvl2=3
CH206 VDD!:41 mout:12 7.97373e-18 $lvl1=1 $lvl2=2
CH207 VDD!:5 mout:8 7.77993e-18 $lvl1=2 $lvl2=3
CH208 VDD! mout:12 6.44878e-18 $lvl1=1 $lvl2=2
CH209 VDD!:24 mout:16 6.2802e-18 $lvl1=2 $lvl2=2
CH210 VDD!:41 mout:26 5.47599e-18 $lvl1=1 $lvl2=1
CH211 VDD! mout:30 5.17502e-18 $lvl1=1 $lvl2=1
CH212 VDD! mout:28 4.69849e-18 $lvl1=1 $lvl2=1
CH213 VDD! mout:22 4.43005e-18 $lvl1=1 $lvl2=2
CH214 VDD!:24 mout:15 4.26001e-18 $lvl1=2 $lvl2=2
CH215 VDD! mout:25 3.82689e-18 $lvl1=1 $lvl2=2
CH216 VDD! mout:26 3.21085e-18 $lvl1=1 $lvl2=1
CH217 VDD!:6 mout:12 2.59009e-18 $lvl1=2 $lvl2=2
CH218 VDD!:24 mout:26 1.54238e-18 $lvl1=2 $lvl2=1
CH219 VDD!:41 mout:28 1.39567e-18 $lvl1=1 $lvl2=1
CH220 VDD!:40 mout:26 1.34241e-18 $lvl1=1 $lvl2=1
CH221 VDD!:10 Mmp30:d 1.19112e-18 $lvl1=2 $lvl2=4
CH222 VDD!:7 mout:12 9.67024e-19 $lvl1=4 $lvl2=2
CH223 VDD!:10 mout:12 2.30992e-17 $lvl1=2 $lvl2=2
CH224 VDD!:24 mout:12 4.96808e-17 $lvl1=2 $lvl2=2
CH225 VDD! mout:9 1.01857e-17 $lvl1=1 $lvl2=3
CH226 VDD!:21 mout:8 1.27745e-16 $lvl1=2 $lvl2=3
CH227 VDD! Ckbb:37 8.18192e-18 $lvl1=1 $lvl2=2
CH228 VDD!:11 Ckbb:24 6.93985e-18 $lvl1=2 $lvl2=3
CH229 VDD!:41 Ckbb:27 6.74545e-18 $lvl1=1 $lvl2=2
CH230 VDD!:27 Ckbb:41 6.73648e-18 $lvl1=2 $lvl2=2
CH231 VDD!:24 Ckbb:31 6.22621e-18 $lvl1=2 $lvl2=2
CH232 VDD!:5 Ckbb:15 5.89371e-18 $lvl1=2 $lvl2=3
CH233 VDD! Ckbb:57 5.75314e-18 $lvl1=1 $lvl2=1
CH234 VDD!:40 Ckbb:57 5.59736e-18 $lvl1=1 $lvl2=1
CH235 VDD! Ckbb:60 5.55177e-18 $lvl1=1 $lvl2=1
CH236 VDD!:5 Ckbb:27 4.94394e-18 $lvl1=2 $lvl2=2
CH237 VDD!:24 Ckbb:30 4.84561e-18 $lvl1=2 $lvl2=2
CH238 VDD!:29 Ckbb:41 4.58215e-18 $lvl1=2 $lvl2=2
CH239 VDD!:21 Ckbb:37 4.52306e-18 $lvl1=2 $lvl2=2
CH240 VDD! Ckbb:41 4.45131e-18 $lvl1=1 $lvl2=2
CH241 VDD!:10 Ckbb:24 4.38093e-18 $lvl1=2 $lvl2=3
CH242 VDD! Ckbb:39 4.30257e-18 $lvl1=1 $lvl2=2
CH243 VDD! Ckbb:27 4.26519e-18 $lvl1=1 $lvl2=2
CH244 VDD! Ckbb:54 4.23369e-18 $lvl1=1 $lvl2=1
CH245 VDD!:27 Ckbb:57 3.89357e-18 $lvl1=2 $lvl2=1
CH246 VDD! Ckbb:53 3.62681e-18 $lvl1=1 $lvl2=1
CH247 VDD! Ckbb:56 3.07424e-18 $lvl1=1 $lvl2=1
CH248 VDD!:29 Ckbb:57 3.01369e-18 $lvl1=2 $lvl2=1
CH249 VDD!:6 Ckbb:27 2.77604e-18 $lvl1=2 $lvl2=2
CH250 VDD!:27 Ckbb:42 2.38544e-18 $lvl1=2 $lvl2=2
CH251 VDD!:21 Ckbb:39 2.31493e-18 $lvl1=2 $lvl2=2
CH252 VDD!:10 Mmp21:d 2.09033e-18 $lvl1=2 $lvl2=4
CH253 VDD!:7 Ckbb:27 2.05437e-18 $lvl1=4 $lvl2=2
CH254 VDD!:41 Ckbb:57 2.02617e-18 $lvl1=1 $lvl2=1
CH255 VDD!:41 Ckbb:51 1.81137e-18 $lvl1=1 $lvl2=1
CH256 VDD! Ckbb:44 1.78554e-18 $lvl1=1 $lvl2=2
CH257 VDD!:27 Ckbb:24 1.65738e-18 $lvl1=2 $lvl2=3
CH258 VDD! Ckbb:51 1.57816e-18 $lvl1=1 $lvl2=1
CH259 VDD! Ckbb:31 1.50975e-18 $lvl1=1 $lvl2=2
CH260 VDD!:41 Ckbb:53 1.20074e-18 $lvl1=1 $lvl2=1
CH261 VDD!:29 Ckbb:42 1.18461e-18 $lvl1=2 $lvl2=2
CH262 VDD! Ckbb:40 1.06648e-18 $lvl1=1 $lvl2=2
CH263 Mmp30:s Ckbb:27 9.48761e-19 $lvl1=4 $lvl2=2
CH264 VDD!:40 Ckbb:53 8.89334e-19 $lvl1=1 $lvl2=1
CH265 VDD!:40 Ckbb:60 8.4279e-19 $lvl1=1 $lvl2=1
CH266 VDD!:27 Ckbb:44 8.33131e-19 $lvl1=2 $lvl2=2
CH267 VDD! Ckbb:50 7.62469e-19 $lvl1=1 $lvl2=2
CH268 VDD!:24 Ckbb:37 6.58592e-19 $lvl1=2 $lvl2=2
CH269 VDD!:41 Ckbb:60 6.50154e-19 $lvl1=1 $lvl2=1
CH270 Mmp35:s Ckbb:39 6.4543e-19 $lvl1=4 $lvl2=2
CH271 VDD! Ckbb:23 6.26132e-19 $lvl1=1 $lvl2=3
CH272 VDD!:21 Ckbb:27 5.92639e-19 $lvl1=2 $lvl2=2
CH273 VDD!:27 Ckbb:26 5.65821e-19 $lvl1=2 $lvl2=3
CH274 VDD!:10 Ckbb:27 2.37765e-17 $lvl1=2 $lvl2=2
CH275 VDD! Ckbb:17 1.55617e-17 $lvl1=1 $lvl2=3
CH276 VDD! Ckbb:26 1.28977e-17 $lvl1=1 $lvl2=3
CH277 VDD!:24 Ckbb:27 5.12516e-17 $lvl1=2 $lvl2=2
CH278 VDD!:10 n20:8 8.10806e-18 $lvl1=2 $lvl2=3
CH279 VDD! n20:26 8.00527e-18 $lvl1=1 $lvl2=1
CH280 VDD! n20:30 7.70369e-18 $lvl1=1 $lvl2=1
CH281 VDD! n20:29 7.16067e-18 $lvl1=1 $lvl2=1
CH282 VDD!:41 n20:12 6.75937e-18 $lvl1=1 $lvl2=2
CH283 VDD! n20:28 6.13547e-18 $lvl1=1 $lvl2=1
CH284 VDD! n20:12 5.40296e-18 $lvl1=1 $lvl2=2
CH285 VDD!:41 n20:28 3.75947e-18 $lvl1=1 $lvl2=1
CH286 VDD!:24 n20:9 3.25855e-18 $lvl1=2 $lvl2=3
CH287 VDD!:21 n20:30 3.25379e-18 $lvl1=2 $lvl2=1
CH288 VDD!:5 n20:29 3.00443e-18 $lvl1=2 $lvl2=1
CH289 VDD!:6 n20:12 2.61476e-18 $lvl1=2 $lvl2=2
CH290 VDD!:40 n20:30 2.49007e-18 $lvl1=1 $lvl2=1
CH291 VDD!:6 n20:30 2.36326e-18 $lvl1=2 $lvl2=1
CH292 VDD!:10 n20:30 2.04873e-18 $lvl1=2 $lvl2=1
CH293 VDD!:6 n20:29 1.971e-18 $lvl1=2 $lvl2=1
CH294 VDD! n20:31 1.94207e-18 $lvl1=1 $lvl2=1
CH295 VDD!:24 n20:31 1.85661e-18 $lvl1=2 $lvl2=1
CH296 VDD!:24 n20:25 1.83019e-18 $lvl1=2 $lvl2=2
CH297 VDD!:24 n20:24 1.74955e-18 $lvl1=2 $lvl2=2
CH298 VDD!:41 n20:31 1.69874e-18 $lvl1=1 $lvl2=1
CH299 VDD!:41 n20:26 1.60225e-18 $lvl1=1 $lvl2=1
CH300 VDD!:5 n20:30 1.3554e-18 $lvl1=2 $lvl2=1
CH301 VDD!:5 Mmp25:d 1.328e-18 $lvl1=2 $lvl2=4
CH302 VDD!:41 n20:29 4.76627e-17 $lvl1=1 $lvl2=1
CH303 VDD! n20:9 1.36392e-17 $lvl1=1 $lvl2=3
CH304 VDD!:5 n20:12 2.13069e-17 $lvl1=2 $lvl2=2
CH305 VDD!:21 n20:29 1.89519e-17 $lvl1=2 $lvl2=1
CH306 VDD!:24 n20:8 1.27033e-16 $lvl1=2 $lvl2=3
CH307 VDD!:41 n20:30 5.33226e-17 $lvl1=1 $lvl2=1
CH308 VDD!:24 n20:30 2.09653e-17 $lvl1=2 $lvl2=1
CH309 VDD!:10 CKb:27 9.03414e-18 $lvl1=2 $lvl2=3
CH310 VDD!:18 CKb:40 8.33549e-18 $lvl1=2 $lvl2=2
CH311 VDD!:5 CKb:22 8.16774e-18 $lvl1=2 $lvl2=3
CH312 VDD!:10 Mmp40:g 6.48899e-18 $lvl1=2 $lvl2=3
CH313 VDD! CKb:54 5.89091e-18 $lvl1=1 $lvl2=1
CH314 VDD! CKb:24 5.40295e-18 $lvl1=1 $lvl2=3
CH315 VDD! CKb:28 5.17246e-18 $lvl1=1 $lvl2=3
CH316 VDD! CKb:33 4.95094e-18 $lvl1=1 $lvl2=3
CH317 VDD! CKb:56 4.82788e-18 $lvl1=1 $lvl2=1
CH318 VDD!:41 CKb:36 4.33909e-18 $lvl1=1 $lvl2=2
CH319 VDD!:18 CKb:39 4.21025e-18 $lvl1=2 $lvl2=2
CH320 VDD! CKb:52 4.01354e-18 $lvl1=1 $lvl2=1
CH321 VDD!:41 CKb:52 3.21658e-18 $lvl1=1 $lvl2=1
CH322 VDD!:18 CKb:52 3.19771e-18 $lvl1=2 $lvl2=1
CH323 VDD!:6 CKb:36 2.70661e-18 $lvl1=2 $lvl2=2
CH324 VDD! CKb:49 2.69165e-18 $lvl1=1 $lvl2=2
CH325 VDD! CKb:48 2.6662e-18 $lvl1=1 $lvl2=2
CH326 VDD! CKb:51 2.60587e-18 $lvl1=1 $lvl2=2
CH327 VDD!:5 Mmp20:d 2.46045e-18 $lvl1=2 $lvl2=4
CH328 VDD! CKb:40 2.39436e-18 $lvl1=1 $lvl2=2
CH329 VDD!:18 CKb:36 4.93507e-17 $lvl1=2 $lvl2=2
CH330 VDD!:5 CKb:36 2.65703e-17 $lvl1=2 $lvl2=2
CH331 VDD!:24 CKb:27 1.31585e-16 $lvl1=2 $lvl2=3
CH332 VDD! CKb:36 1.16755e-17 $lvl1=1 $lvl2=2
CH333 VDD!:18 Db:25 8.9077e-18 $lvl1=2 $lvl2=1
CH334 VDD! Db:23 8.80129e-18 $lvl1=1 $lvl2=1
CH335 VDD! Db:24 8.58477e-18 $lvl1=1 $lvl2=1
CH336 VDD! Db:25 6.36358e-18 $lvl1=1 $lvl2=1
CH337 VDD!:41 Db 6.25304e-18 $lvl1=1 $lvl2=2
CH338 VDD! Db 6.19414e-18 $lvl1=1 $lvl2=2
CH339 VDD! Db:26 6.13749e-18 $lvl1=1 $lvl2=1
CH340 VDD! Db:27 5.84134e-18 $lvl1=1 $lvl2=1
CH341 VDD!:5 Db:24 5.75205e-18 $lvl1=2 $lvl2=1
CH342 VDD!:41 Db:11 5.41943e-18 $lvl1=1 $lvl2=2
CH343 VDD!:41 Db:23 4.91799e-18 $lvl1=1 $lvl2=1
CH344 VDD!:5 Db:25 4.77267e-18 $lvl1=2 $lvl2=1
CH345 VDD!:6 Db 4.59994e-18 $lvl1=2 $lvl2=2
CH346 VDD!:41 Db:26 4.26755e-18 $lvl1=1 $lvl2=1
CH347 VDD!:6 Db:24 4.18169e-18 $lvl1=2 $lvl2=1
CH348 VDD!:6 Db:25 3.62961e-18 $lvl1=2 $lvl2=1
CH349 VDD!:6 Db:11 3.38079e-18 $lvl1=2 $lvl2=2
CH350 VDD!:1 Db 3.17595e-18 $lvl1=2 $lvl2=2
CH351 VDD!:18 Db 2.93156e-18 $lvl1=2 $lvl2=2
CH352 VDD!:4 Db:24 2.60695e-18 $lvl1=2 $lvl2=1
CH353 VDD!:7 Db:11 1.98842e-18 $lvl1=4 $lvl2=2
CH354 VDD!:1 Db:24 1.85919e-18 $lvl1=2 $lvl2=1
CH355 VDD!:5 Mmp25:s 1.82261e-18 $lvl1=2 $lvl2=4
CH356 VDD! Db:15 1.29616e-18 $lvl1=1 $lvl2=2
CH357 VDD!:41 Db:27 1.15037e-18 $lvl1=1 $lvl2=1
CH358 VDD! Db:5 1.11972e-18 $lvl1=1 $lvl2=2
CH359 VDD! Db:22 1.07795e-17 $lvl1=1 $lvl2=1
CH360 VDD!:18 Db:24 1.42968e-17 $lvl1=2 $lvl2=1
CH361 VDD! Db:11 1.40761e-17 $lvl1=1 $lvl2=2
CH362 VDD!:41 Db:25 7.35284e-17 $lvl1=1 $lvl2=1
CH363 VDD!:5 Db:11 2.55071e-17 $lvl1=2 $lvl2=2
CH364 VDD!:41 Db:24 7.65845e-17 $lvl1=1 $lvl2=1
CH365 VDD!:5 Db 1.24732e-17 $lvl1=2 $lvl2=2
CH366 VDD!:4 Db 1.3961e-17 $lvl1=2 $lvl2=2
CH367 VDD!:5 SEb:11 8.14628e-18 $lvl1=2 $lvl2=3
CH368 VDD!:42 SEb:14 7.51567e-18 $lvl1=1 $lvl2=2
CH369 VDD! SEb:27 7.28952e-18 $lvl1=1 $lvl2=2
CH370 VDD!:1 SEb:31 6.88454e-18 $lvl1=2 $lvl2=2
CH371 VDD!:41 SEb:32 6.37401e-18 $lvl1=1 $lvl2=1
CH372 VDD!:1 SEb:18 6.12107e-18 $lvl1=2 $lvl2=2
CH373 VDD! SEb:18 5.54922e-18 $lvl1=1 $lvl2=2
CH374 VDD!:1 SEb:32 4.94437e-18 $lvl1=2 $lvl2=1
CH375 VDD!:41 SEb:14 4.72096e-18 $lvl1=1 $lvl2=2
CH376 VDD!:42 SEb:32 4.6823e-18 $lvl1=1 $lvl2=1
CH377 VDD!:1 SEb:17 3.94625e-18 $lvl1=2 $lvl2=2
CH378 VDD! SEb:30 2.97902e-18 $lvl1=1 $lvl2=2
CH379 VDD! SEb:28 2.97546e-18 $lvl1=1 $lvl2=2
CH380 VDD!:41 SEb:34 2.87664e-18 $lvl1=1 $lvl2=1
CH381 VDD!:18 SEb:11 2.72375e-18 $lvl1=2 $lvl2=3
CH382 VDD! SEb:26 2.63574e-18 $lvl1=1 $lvl2=2
CH383 VDD!:7 SEb:14 2.60143e-18 $lvl1=4 $lvl2=2
CH384 VDD!:4 Mmp10:d 2.26377e-18 $lvl1=2 $lvl2=4
CH385 VDD! SEb:17 2.09836e-18 $lvl1=1 $lvl2=2
CH386 VDD! SEb:20 2.06491e-18 $lvl1=1 $lvl2=2
CH387 VDD!:4 SEb:11 1.7431e-18 $lvl1=2 $lvl2=3
CH388 VDD! SEb:23 1.64694e-18 $lvl1=1 $lvl2=2
CH389 VDD!:6 SEb:14 1.64386e-18 $lvl1=2 $lvl2=2
CH390 VDD!:41 SEb:35 1.24065e-18 $lvl1=1 $lvl2=1
CH391 VDD!:42 SEb:34 1.14399e-18 $lvl1=1 $lvl2=1
CH392 VDD!:1 SEb:34 8.88612e-19 $lvl1=2 $lvl2=1
CH393 Mmp11:s SEb:14 8.45018e-19 $lvl1=4 $lvl2=2
CH394 VDD!:4 SEb:32 7.62968e-19 $lvl1=2 $lvl2=1
CH395 VDD!:18 SEb:13 7.46712e-19 $lvl1=2 $lvl2=3
CH396 VDD!:42 SEb:35 7.26256e-19 $lvl1=1 $lvl2=1
CH397 VDD!:15 Mmp10:d 6.98503e-19 $lvl1=2 $lvl2=4
CH398 VDD!:18 SEb:28 6.69637e-19 $lvl1=2 $lvl2=2
CH399 VDD!:1 SEb:28 6.62622e-19 $lvl1=2 $lvl2=2
CH400 VDD!:41 SEb:37 5.76839e-19 $lvl1=1 $lvl2=1
CH401 VDD!:1 SEb:30 5.76059e-19 $lvl1=2 $lvl2=2
CH402 VDD!:1 Mmp10:d 5.72916e-19 $lvl1=2 $lvl2=4
CH403 VDD!:15 SEb:14 1.32383e-17 $lvl1=2 $lvl2=2
CH404 VDD! SEb:13 1.37223e-17 $lvl1=1 $lvl2=3
CH405 VDD! SEb:35 2.56907e-17 $lvl1=1 $lvl2=1
CH406 VDD! SEb:34 2.65474e-17 $lvl1=1 $lvl2=1
CH407 VDD! SEb:19 9.50482e-18 $lvl1=1 $lvl2=2
CH408 VDD! SEb:32 1.52642e-17 $lvl1=1 $lvl2=1
CH409 VDD! SEb:37 1.1449e-17 $lvl1=1 $lvl2=1
CH410 VDD! SEb:14 3.84176e-17 $lvl1=1 $lvl2=2
CH411 VDD!:4 SEb:14 1.32823e-17 $lvl1=2 $lvl2=2
CH412 VDD! SEb:31 1.43203e-17 $lvl1=1 $lvl2=2
CH413 VDD!:1 SEb:14 5.15645e-17 $lvl1=2 $lvl2=2
CH414 VDD! VSS!:6 7.99352e-18 $lvl1=1 $lvl2=2
CH415 VDD!:41 VSS!:38 5.04912e-18 $lvl1=1 $lvl2=1
CH416 VDD! VSS!:14 8.88057e-17 $lvl1=1 $lvl2=2
CH417 VDD! VSS!:15 3.5798e-17 $lvl1=1 $lvl2=2
CH418 VDD! VSS!:16 1.20973e-17 $lvl1=1 $lvl2=2
CH419 VDD! VSS!:12 1.85772e-17 $lvl1=1 $lvl2=2
CH420 VDD! VSS!:38 1.72228e-16 $lvl1=1 $lvl2=1
CH421 VDD! VSS!:37 1.16496e-16 $lvl1=1 $lvl2=1
CH422 VDD! VSS!:36 3.68993e-17 $lvl1=1 $lvl2=1
CH423 VDD! VSS!:39 3.70282e-17 $lvl1=1 $lvl2=1
CH424 VDD! VSS!:17 2.24719e-17 $lvl1=1 $lvl2=2
CH425 VDD! VSS!:4 2.5528e-17 $lvl1=1 $lvl2=2
CH426 VDD! VSS!:9 6.90322e-17 $lvl1=1 $lvl2=2
CH427 VDD! VSS!:10 3.53457e-17 $lvl1=1 $lvl2=2
ReH110 VDD!:39 VDD!:40 0.718750 $metal1  $L=2.3 $W=0.400000 $SI_W=0.4 $TYPE=10 $DIR=0 $LLX=9.200000 $LLY=3.940000 $URX=11.500000 $URY=4.340000 $lvl=1
ReH111 VDD!:40 VDD! 1.367188 $metal1  $L=4.375 $W=0.400000 $SI_W=0.4 $TYPE=10 $DIR=0 $LLX=4.825000 $LLY=3.940000 $URX=9.200000 $URY=4.340000 $lvl=1
ReH112 VDD! VDD!:41 0.357812 $metal1  $L=1.145 $W=0.400000 $SI_W=0.4 $TYPE=10 $DIR=0 $LLX=3.680000 $LLY=3.940000 $URX=4.825000 $URY=4.340000 $lvl=1
ReH113 VDD!:41 VDD!:42 1.150000 $metal1  $L=3.68 $W=0.400000 $SI_W=0.4 $TYPE=10 $DIR=0 $LLX=0.000000 $LLY=3.940000 $URX=3.680000 $URY=4.340000 $lvl=1
RfH114 VDD!:1 VDD!:3 29.364706 $li  $L=0.39 $W=0.170000 $SI_W=0.17 $TYPE=10 $DIR=1 $LLX=0.605000 $LLY=2.965000 $URX=0.775000 $URY=3.355000 $lvl=2
RfH115 VDD!:3 VDD!:4 56.106915 $li  $L=0.78525 $W=0.170000 $SI_W=0.17 $TYPE=10 $DIR=1 $LLX=0.605000 $LLY=3.355000 $URX=0.775000 $URY=4.140000 $lvl=2
RfH116 VDD!:4 VDD!:5 88.063995 $li  $L=1.72 $W=0.250000 $SI_W=0.25 $TYPE=10 $DIR=0 $LLX=0.690000 $LLY=4.015000 $URX=2.410000 $URY=4.265000 $lvl=2
RfH117 VDD!:5 VDD!:6 65.011192 $li  $L=1.26975 $W=0.250000 $SI_W=0.25 $TYPE=10 $DIR=0 $LLX=2.410000 $LLY=4.015000 $URX=3.680000 $URY=4.265000 $lvl=2
RfH118 VDD!:6 VDD!:9 49.676800 $li  $L=0.97025 $W=0.250000 $SI_W=0.25 $TYPE=10 $DIR=0 $LLX=3.680000 $LLY=4.015000 $URX=4.650000 $URY=4.265000 $lvl=2
RfH119 VDD!:9 VDD!:10 70.655998 $li  $L=1.38 $W=0.250000 $SI_W=0.25 $TYPE=10 $DIR=0 $LLX=4.650000 $LLY=4.015000 $URX=6.030000 $URY=4.265000 $lvl=2
RfH120 VDD!:10 VDD!:11 88.063995 $li  $L=1.72 $W=0.250000 $SI_W=0.25 $TYPE=10 $DIR=0 $LLX=6.030000 $LLY=4.015000 $URX=7.750000 $URY=4.265000 $lvl=2
RfH121 VDD!:11 VDD!:12 26.623999 $li  $L=0.52 $W=0.250000 $SI_W=0.25 $TYPE=10 $DIR=0 $LLX=7.750000 $LLY=4.015000 $URX=8.270000 $URY=4.265000 $lvl=2