*
*|DSPF 1.5
*
*|DATE "Wed Jan  8 19:31:13 2025"
*|VENDOR "Cadence Design Systems"
*|PROGRAM "Cadence Quantus Extraction"
*|VERSION "22.1.0-p089 Linux 64 bit - (Thu Jan 19 11:47:08 PST 2023)"
*|DESIGN SDFFRX4_HS
*|DIVIDER /
*|DELIMITER :
*|DeviceFingerDelim "@"
*|BUSBIT []
*|GLOBAL_TEMPERATURE 25
*|OPERATING_TEMPERATURE 25

** *VIA_COVERAGE_CODES
** *index FF FS FP FU SF SS SP SU PF PS PP PU UF US UP UU X_by_Y
** * "FF" stands for Full landing and Full coverage
** *0 0 0 0 0 0 0 0 0 0 0 0 0 0 0 0 0
** *1 0 0 0 0 0 0 0 0 0 0 0 0 0 0 0 1 1x1
** *2 0 0 0 0 0 0 0 0 0 0 0 0 0 0 1 0 1x1
** *3 0 0 0 0 0 0 0 0 0 0 0 0 0 1 0 0 1x1
** *4 0 0 0 0 0 0 0 0 0 0 0 0 1 0 0 0 1x1
** *5 0 0 0 0 0 0 0 0 0 0 0 1 0 0 0 0 1x1
** *6 0 0 0 0 0 0 0 0 0 0 1 0 0 0 0 0 1x1
** *7 0 0 0 0 0 0 0 0 0 1 0 0 0 0 0 0 1x1
** *8 0 0 0 0 0 0 0 0 1 0 0 0 0 0 0 0 1x1
** *9 0 0 0 0 0 0 0 1 0 0 0 0 0 0 0 0 1x1
** *10 0 0 0 0 0 0 1 0 0 0 0 0 0 0 0 0 1x1
** *11 0 0 0 0 0 1 0 0 0 0 0 0 0 0 0 0 1x1
** *12 0 0 0 0 1 0 0 0 0 0 0 0 0 0 0 0 1x1
** *13 0 0 0 1 0 0 0 0 0 0 0 0 0 0 0 0 1x1
** *14 0 0 1 0 0 0 0 0 0 0 0 0 0 0 0 0 1x1
** *15 0 1 0 0 0 0 0 0 0 0 0 0 0 0 0 0 1x1
** *16 1 0 0 0 0 0 0 0 0 0 0 0 0 0 0 0 1x1

** *RESISTOR_TYPES
** *1 SHORTING_ELEMENT
** *2 PRES_NG
** *3 PRES_PG
** *4 PRES_NF
** *5 PRES_PF
** *6 TCN_NDIFF
** *7 TCN_PDIFF
** *8 TCN_NFIELD
** *9 TCN_PFIELD
** *10 QUALITY_EXTRACTED
** *11 GCNLAND
** *12 TCNLAND
** *13 DUMMY
** *14 RSD
** *15 BRIDGE

** *RESISTOR_CURRENT_DIRECTION
** *0 HORIZONTAL
** *1 VERTICAL
** *2 45 DEGREE

** QRC_TECH_DIR /vols/wfo_devel/projects/reference_SKY130/tech/sky130_release_0.0.4/quantus/extraction/typical 
** HIERARCHICAL_SPLIT_PINS_DELIMITER '%'
** caps2d version: 10
*
.SUBCKT  SDFFRX4_HS CK D Q QN RN SE SI
*
*Net Section
*
*|GROUND_NET VSS!
*
*LAYER_MAP
*0 none
*1 metal1
*2 li
*3 poly
*4 diff
*5 licon_diff
*6 mcon
*7 licon
*8 FOX

*|NET SEb 1.74665e-15
*|I (Mmp14:g Mmp14 g X 0 1.7650 3.3550) // $llx=1.7650 $lly=3.3550 $urx=1.7650 $ury=3.3550 $lvl=3
*|I (Mmp10:d Mmp10 d X 0 0.3995 3.3550) // $llx=0.3995 $lly=3.3550 $urx=0.3995 $ury=3.3550 $lvl=4
*|I (Mmn12:g Mmn12 g X 0 1.3350 0.6075) // $llx=1.3350 $lly=0.6075 $urx=1.3350 $ury=0.6075 $lvl=3
*|I (Mmn10:d Mmn10 d X 0 0.3995 0.6075) // $llx=0.3995 $lly=0.6075 $urx=0.3995 $ury=0.6075 $lvl=4
*|S (SEb 1.3350 0.6075) // $llx=1.3350 $lly=0.6075 $urx=1.3350 $ury=0.6075 $lvl=3
*|S (SEb:8 1.3350 0.2450) // $llx=1.3350 $lly=0.2450 $urx=1.3350 $ury=0.2450 $lvl=3
*|S (SEb:9 1.3350 0.9300) // $llx=1.3350 $lly=0.9300 $urx=1.3350 $ury=0.9300 $lvl=3
*|S (SEb:10 1.3350 1.0950) // $llx=1.3350 $lly=1.0950 $urx=1.3350 $ury=1.0950 $lvl=3
*|S (SEb:11 1.7650 3.8950) // $llx=1.7650 $lly=3.8950 $urx=1.7650 $ury=3.8950 $lvl=3
*|S (SEb:12 1.7650 2.6195) // $llx=1.7650 $lly=2.6195 $urx=1.7650 $ury=2.6195 $lvl=3
*|S (SEb:13 1.7650 2.4550) // $llx=1.7650 $lly=2.4550 $urx=1.7650 $ury=2.4550 $lvl=3
*|S (SEb:14 0.2600 3.7450) // $llx=0.2600 $lly=3.7450 $urx=0.2600 $ury=3.7450 $lvl=2
*|S (SEb:16 0.2600 3.3550) // $llx=0.2600 $lly=3.3550 $urx=0.2600 $ury=3.3550 $lvl=2
*|S (SEb:17 0.2600 2.8950) // $llx=0.2600 $lly=2.8950 $urx=0.2600 $ury=2.8950 $lvl=2
*|S (SEb:18 0.2600 2.7300) // $llx=0.2600 $lly=2.7300 $urx=0.2600 $ury=2.7300 $lvl=2
*|S (SEb:19 0.2600 0.8200) // $llx=0.2600 $lly=0.8200 $urx=0.2600 $ury=0.8200 $lvl=2
*|S (SEb:20 0.2600 0.6550) // $llx=0.2600 $lly=0.6550 $urx=0.2600 $ury=0.6550 $lvl=2
*|S (SEb:22 0.2600 0.6050) // $llx=0.2600 $lly=0.6050 $urx=0.2600 $ury=0.6050 $lvl=2
*|S (SEb:23 0.2600 0.3950) // $llx=0.2600 $lly=0.3950 $urx=0.2600 $ury=0.3950 $lvl=2
*|S (SEb:24 1.5200 1.0950) // $llx=1.5200 $lly=1.0950 $urx=1.5200 $ury=1.0950 $lvl=2
*|S (SEb:25 1.3350 1.0950) // $llx=1.3350 $lly=1.0950 $urx=1.3350 $ury=1.0950 $lvl=2
*|S (SEb:26 0.2600 1.0950) // $llx=0.2600 $lly=1.0950 $urx=0.2600 $ury=1.0950 $lvl=2
*|S (SEb:27 0.0950 1.0950) // $llx=0.0950 $lly=1.0950 $urx=0.0950 $ury=1.0950 $lvl=2
*|S (SEb:28 1.9500 2.4550) // $llx=1.9500 $lly=2.4550 $urx=1.9500 $ury=2.4550 $lvl=2
*|S (SEb:29 1.7650 2.4550) // $llx=1.7650 $lly=2.4550 $urx=1.7650 $ury=2.4550 $lvl=2
*|S (SEb:30 0.2600 2.4550) // $llx=0.2600 $lly=2.4550 $urx=0.2600 $ury=2.4550 $lvl=2
*|S (SEb:31 0.0950 2.4550) // $llx=0.0950 $lly=2.4550 $urx=0.0950 $ury=2.4550 $lvl=2
*|S (SEb:32 0.2600 3.0400) // $llx=0.2600 $lly=3.0400 $urx=0.2600 $ury=3.0400 $lvl=1
*|S (SEb:33 0.2600 2.8950) // $llx=0.2600 $lly=2.8950 $urx=0.2600 $ury=2.8950 $lvl=1
*|S (SEb:34 0.2600 2.4550) // $llx=0.2600 $lly=2.4550 $urx=0.2600 $ury=2.4550 $lvl=1
*|S (SEb:35 0.2600 1.0950) // $llx=0.2600 $lly=1.0950 $urx=0.2600 $ury=1.0950 $lvl=1
*|S (SEb:36 0.2600 0.6550) // $llx=0.2600 $lly=0.6550 $urx=0.2600 $ury=0.6550 $lvl=1
*|S (SEb:37 0.2600 0.5100) // $llx=0.2600 $lly=0.5100 $urx=0.2600 $ury=0.5100 $lvl=1
CJ1 Mmn10:d VSS! 1.13792e-18 $lvl=4
CJ2 Mmp10:d VSS! 1.1903e-18 $lvl=4
CJ3 SEb:35 VSS! 7.30373e-18 $lvl=1
CJ4 SEb:34 VSS! 6.74964e-18 $lvl=1
CJ5 SEb:32 VSS! 5.7967e-18 $lvl=1
CJ6 SEb:37 VSS! 5.32062e-18 $lvl=1
CJ7 SEb:11 VSS! 2.69607e-18 $lvl=3
CJ8 SEb:8 VSS! 1.98248e-18 $lvl=3
CJ9 SEb:29 VSS! 4.77298e-18 $lvl=2
CJ10 SEb:31 VSS! 4.50397e-18 $lvl=2
CJ11 SEb:24 VSS! 1.15703e-17 $lvl=2
CJ12 SEb:27 VSS! 7.43681e-18 $lvl=2
CJ13 SEb:19 VSS! 8.09103e-18 $lvl=2
CJ14 SEb:23 VSS! 8.13711e-19 $lvl=2
CJ15 SEb:14 VSS! 3.01821e-18 $lvl=2
CJ16 SEb:20 VSS! 1.17971e-18 $lvl=2
CJ17 SEb:26 VSS! 2.07976e-18 $lvl=2
CJ18 SEb:30 VSS! 1.56969e-18 $lvl=2
CJ19 SEb:17 VSS! 2.53732e-18 $lvl=2
CJ20 SEb:10 VSS! 1.87611e-17 $lvl=3
CJ21 SEb:13 VSS! 7.3276e-18 $lvl=3
CJ22 SEb:29 n4:3 1.37362e-18 $lvl1=2 $lvl2=2
CJ23 SEb:11 n4:4 7.88097e-19 $lvl1=3 $lvl2=2
CJ24 SEb:13 Mmp14:s 6.94542e-19 $lvl1=3 $lvl2=4
CJ25 SEb:13 n2:4 6.054e-19 $lvl1=3 $lvl2=2
CJ26 SEb:13 n2:3 4.47481e-19 $lvl1=3 $lvl2=2
CJ27 SEb:17 n2:3 3.66934e-19 $lvl1=2 $lvl2=2
CJ28 SEb:17 n2:4 3.61268e-19 $lvl1=2 $lvl2=2
CJ29 SEb:14 n2:3 3.24412e-19 $lvl1=2 $lvl2=2
CJ30 SEb:29 Mmp11:d 2.75188e-19 $lvl1=2 $lvl2=4
CJ31 SEb:11 n2:3 2.65878e-19 $lvl1=3 $lvl2=2
CJ32 SEb:13 Mmp11:d 2.33153e-19 $lvl1=3 $lvl2=4
CJ33 SEb:10 Mmn12:s 1.28448e-18 $lvl1=3 $lvl2=4
CJ34 SEb:27 n1:3 1.11778e-18 $lvl1=2 $lvl2=2
CJ35 SEb:27 n1 6.58633e-19 $lvl1=2 $lvl2=2
CJ36 SEb:8 n1:4 4.67639e-19 $lvl1=3 $lvl2=2
CJ37 SEb:8 n1 2.48917e-19 $lvl1=3 $lvl2=2
CJ38 SEb:24 Mmn12:s 2.36331e-19 $lvl1=2 $lvl2=4
CJ39 SEb:19 n1:3 1.93724e-19 $lvl1=2 $lvl2=2
CJ40 SEb:24 n1 1.37923e-17 $lvl1=2 $lvl2=2
CJ41 SEb:8 n1:3 6.46036e-17 $lvl1=3 $lvl2=2
CJ42 SEb:10 n1:3 5.04266e-18 $lvl1=3 $lvl2=2
CJ43 SEb:13 n4:4 4.5037e-18 $lvl1=3 $lvl2=2
CJ44 SEb:13 n4:3 2.07114e-18 $lvl1=3 $lvl2=2
CJ45 SEb:11 n4:3 6.70889e-17 $lvl1=3 $lvl2=2
CJ46 SEb:29 n4:4 1.09612e-17 $lvl1=2 $lvl2=2
CJ47 SEb:10 n1 2.04902e-18 $lvl1=3 $lvl2=2
CJ48 SEb:29 n2:3 1.99119e-18 $lvl1=2 $lvl2=2
CJ49 SEb:31 n2:3 1.79756e-18 $lvl1=2 $lvl2=2
CJ50 SEb:24 n1:3 5.90525e-18 $lvl1=2 $lvl2=2
CJ51 SEb:29 n2:4 1.42112e-17 $lvl1=2 $lvl2=2
CJ52 SEb:31 n2:4 6.69442e-18 $lvl1=2 $lvl2=2
CJ53 SEb:10 Db:6 7.57031e-18 $lvl1=3 $lvl2=2
CJ54 SEb:29 Db:4 4.63812e-18 $lvl1=2 $lvl2=2
CJ55 SEb:13 Db:5 4.46783e-18 $lvl1=3 $lvl2=2
CJ56 SEb:24 Db:7 3.17259e-18 $lvl1=2 $lvl2=2
CJ57 SEb:34 Db:23 2.05645e-18 $lvl1=1 $lvl2=1
CJ58 SEb:10 Mmn14:d 1.7563e-18 $lvl1=3 $lvl2=4
CJ59 SEb:10 Db:22 1.58083e-18 $lvl1=3 $lvl2=1
CJ60 SEb:35 Db:22 1.54973e-18 $lvl1=1 $lvl2=1
CJ61 SEb:13 Db 1.49925e-18 $lvl1=3 $lvl2=2
CJ62 SEb:32 Db:23 1.28494e-18 $lvl1=1 $lvl2=1
CJ63 SEb:11 Db:5 1.27559e-18 $lvl1=3 $lvl2=2
CJ64 SEb:37 Db:22 1.11167e-18 $lvl1=1 $lvl2=1
CJ65 SEb:13 Db:23 1.03359e-18 $lvl1=3 $lvl2=1
CJ66 SEb:34 Db:22 1.01272e-18 $lvl1=1 $lvl2=1
CJ67 SEb:32 Db:24 9.9478e-19 $lvl1=1 $lvl2=1
CJ68 SEb:29 Db 8.13079e-19 $lvl1=2 $lvl2=2
CJ69 SEb:31 Db:23 8.10975e-19 $lvl1=2 $lvl2=1
CJ70 SEb:35 Db:23 6.80567e-19 $lvl1=1 $lvl2=1
CJ71 SEb:13 Mmp14:d 6.65397e-19 $lvl1=3 $lvl2=4
CJ72 SEb:34 Db:24 6.47265e-19 $lvl1=1 $lvl2=1
CJ73 SEb:8 Db:10 5.87815e-19 $lvl1=3 $lvl2=2
CJ74 SEb:29 Db:24 4.80717e-19 $lvl1=2 $lvl2=1
CJ75 SEb:24 Db:6 1.09282e-17 $lvl1=2 $lvl2=2
CJ76 SEb:29 Db:5 1.77324e-17 $lvl1=2 $lvl2=2
CJ77 SEb:29 Db:23 2.31474e-17 $lvl1=2 $lvl2=1
CJ78 SEb:24 Db:22 1.5171e-17 $lvl1=2 $lvl2=1
CJ79 SEb:11 Db 1.30719e-16 $lvl1=3 $lvl2=2
CJ80 SEb:8 Db:6 6.35861e-17 $lvl1=3 $lvl2=2
CJ81 SEb:8 VSS!:20 8.00983e-18 $lvl1=3 $lvl2=2
CJ82 SEb:23 VSS!:21 7.6356e-18 $lvl1=2 $lvl2=2
CJ83 SEb:20 VSS!:52 7.15148e-18 $lvl1=2 $lvl2=2
CJ84 SEb:24 VSS!:52 6.98418e-18 $lvl1=2 $lvl2=2
CJ85 SEb:23 VSS!:20 6.9041e-18 $lvl1=2 $lvl2=2
CJ86 SEb:23 VSS!:52 5.77389e-18 $lvl1=2 $lvl2=2
CJ87 SEb:19 VSS!:20 5.3167e-18 $lvl1=2 $lvl2=2
CJ88 SEb:35 VSS!:56 4.3321e-18 $lvl1=1 $lvl2=1
CJ89 SEb:35 VSS!:57 3.56455e-18 $lvl1=1 $lvl2=1
CJ90 SEb:19 VSS!:21 3.35736e-18 $lvl1=2 $lvl2=2
CJ91 SEb:37 VSS!:52 3.15748e-18 $lvl1=1 $lvl2=2
CJ92 SEb:34 VSS!:56 2.46104e-18 $lvl1=1 $lvl2=1
CJ93 SEb:37 VSS!:21 2.23295e-18 $lvl1=1 $lvl2=2
CJ94 SEb:19 VSS!:57 2.13696e-18 $lvl1=2 $lvl2=1
CJ95 SEb:19 VSS!:5 2.08323e-18 $lvl1=2 $lvl2=4
CJ96 SEb:23 VSS!:57 1.97913e-18 $lvl1=2 $lvl2=1
CJ97 Mmn10:d VSS!:20 1.8478e-18 $lvl1=4 $lvl2=2
CJ98 SEb:37 VSS!:20 1.4111e-18 $lvl1=1 $lvl2=2
CJ99 SEb:35 VSS!:52 1.40501e-18 $lvl1=1 $lvl2=2
CJ100 SEb:26 VSS!:52 1.38567e-18 $lvl1=2 $lvl2=2
CJ101 SEb:20 VSS!:21 1.37915e-18 $lvl1=2 $lvl2=2
CJ102 SEb:20 VSS!:57 1.3483e-18 $lvl1=2 $lvl2=1
CJ103 SEb:23 VSS!:17 1.29709e-18 $lvl1=2 $lvl2=2
CJ104 SEb:34 VSS!:57 1.02486e-18 $lvl1=1 $lvl2=1
CJ105 SEb:37 VSS!:17 1.02147e-18 $lvl1=1 $lvl2=2
CJ106 SEb:20 VSS!:20 9.26955e-19 $lvl1=2 $lvl2=2
CJ107 SEb:10 VSS!:52 9.21796e-19 $lvl1=3 $lvl2=2
CJ108 SEb:20 VSS!:56 8.08768e-19 $lvl1=2 $lvl2=1
CJ109 SEb:8 VSS!:19 7.60396e-19 $lvl1=3 $lvl2=2
CJ110 SEb:19 VSS!:56 7.43902e-19 $lvl1=2 $lvl2=1
CJ111 SEb:23 VSS!:56 7.32231e-19 $lvl1=2 $lvl2=1
CJ112 SEb:35 VSS!:21 7.24525e-19 $lvl1=1 $lvl2=2
CJ113 Mmn10:d VSS!:52 6.11862e-19 $lvl1=4 $lvl2=2
CJ114 SEb:32 VSS!:56 5.36927e-19 $lvl1=1 $lvl2=1
CJ115 SEb:23 VSS!:5 5.21861e-19 $lvl1=2 $lvl2=4
CJ116 SEb:27 VSS!:21 4.35893e-19 $lvl1=2 $lvl2=2
CJ117 SEb:20 VSS!:17 3.84366e-19 $lvl1=2 $lvl2=2
CJ118 SEb:32 VSS!:57 3.62157e-19 $lvl1=1 $lvl2=1
CJ119 SEb:35 VSS!:20 3.53708e-19 $lvl1=1 $lvl2=2
CJ120 SEb:37 VSS!:57 1.77574e-17 $lvl1=1 $lvl2=1
CJ121 SEb:27 VSS!:52 1.84499e-17 $lvl1=2 $lvl2=2
CJ122 SEb:19 VSS!:52 1.84337e-17 $lvl1=2 $lvl2=2
CJ123 SEb:37 VSS!:56 1.7177e-17 $lvl1=1 $lvl2=1
ReJ353 SEb:32 SEb:33 0.078804 $metal1  $L=0.145 $W=0.230000 $SI_W=0.23 $TYPE=10 $DIR=1 $LLX=0.145000 $LLY=2.895000 $URX=0.375000 $URY=3.040000 $lvl=1
ReJ354 SEb:33 SEb:34 0.239130 $metal1  $L=0.44 $W=0.230000 $SI_W=0.23 $TYPE=10 $DIR=1 $LLX=0.145000 $LLY=2.455000 $URX=0.375000 $URY=2.895000 $lvl=1
ReJ355 SEb:34 SEb:35 0.739130 $metal1  $L=1.36 $W=0.230000 $SI_W=0.23 $TYPE=10 $DIR=1 $LLX=0.145000 $LLY=1.095000 $URX=0.375000 $URY=2.455000 $lvl=1
ReJ356 SEb:35 SEb:36 0.239130 $metal1  $L=0.44 $W=0.230000 $SI_W=0.23 $TYPE=10 $DIR=1 $LLX=0.145000 $LLY=0.655000 $URX=0.375000 $URY=1.095000 $lvl=1
ReJ357 SEb:36 SEb:37 0.078804 $metal1  $L=0.145 $W=0.230000 $SI_W=0.23 $TYPE=10 $DIR=1 $LLX=0.145000 $LLY=0.510000 $URX=0.375000 $URY=0.655000 $lvl=1
RfJ358 SEb:14 SEb:16 29.364706 $li  $L=0.39 $W=0.170000 $SI_W=0.17 $TYPE=10 $DIR=1 $LLX=0.175000 $LLY=3.355000 $URX=0.345000 $URY=3.745000 $lvl=2
RfJ359 SEb:16 SEb:17 34.635296 $li  $L=0.46 $W=0.170000 $SI_W=0.17 $TYPE=10 $DIR=1 $LLX=0.175000 $LLY=2.895000 $URX=0.345000 $URY=3.355000 $lvl=2
RfJ360 SEb:17 SEb:18 12.423529 $li  $L=0.165 $W=0.170000 $SI_W=0.17 $TYPE=10 $DIR=1 $LLX=0.175000 $LLY=2.730000 $URX=0.345000 $URY=2.895000 $lvl=2
RfJ361 SEb:19 SEb:20 12.423529 $li  $L=0.165 $W=0.170000 $SI_W=0.17 $TYPE=10 $DIR=1 $LLX=0.175000 $LLY=0.655000 $URX=0.345000 $URY=0.820000 $lvl=2
RfJ362 SEb:20 SEb:22 3.764706 $li  $L=0.05 $W=0.170000 $SI_W=0.17 $TYPE=10 $DIR=1 $LLX=0.175000 $LLY=0.605000 $URX=0.345000 $URY=0.655000 $lvl=2
RfJ363 SEb:22 SEb:23 15.811765 $li  $L=0.21 $W=0.170000 $SI_W=0.17 $TYPE=10 $DIR=1 $LLX=0.175000 $LLY=0.395000 $URX=0.345000 $URY=0.605000 $lvl=2
RfJ364 SEb:24 SEb:25 13.929413 $li  $L=0.185 $W=0.170000 $SI_W=0.17 $TYPE=10 $DIR=0 $LLX=1.335000 $LLY=1.010000 $URX=1.520000 $URY=1.180000 $lvl=2
RfJ365 SEb:25 SEb:26 80.941177 $li  $L=1.075 $W=0.170000 $SI_W=0.17 $TYPE=10 $DIR=0 $LLX=0.260000 $LLY=1.010000 $URX=1.335000 $URY=1.180000 $lvl=2
RfJ366 SEb:26 SEb:27 12.423529 $li  $L=0.165 $W=0.170000 $SI_W=0.17 $TYPE=10 $DIR=0 $LLX=0.095000 $LLY=1.010000 $URX=0.260000 $URY=1.180000 $lvl=2
RfJ367 SEb:28 SEb:29 13.929413 $li  $L=0.185 $W=0.170000 $SI_W=0.17 $TYPE=10 $DIR=0 $LLX=1.765000 $LLY=2.370000 $URX=1.950000 $URY=2.540000 $lvl=2
RfJ368 SEb:29 SEb:30 113.317642 $li  $L=1.505 $W=0.170000 $SI_W=0.17 $TYPE=10 $DIR=0 $LLX=0.260000 $LLY=2.370000 $URX=1.765000 $URY=2.540000 $lvl=2
RfJ369 SEb:30 SEb:31 12.423529 $li  $L=0.165 $W=0.170000 $SI_W=0.17 $TYPE=10 $DIR=0 $LLX=0.095000 $LLY=2.370000 $URX=0.260000 $URY=2.540000 $lvl=2
RgJ370 SEb:8 SEb 116.483322 $poly  $L=0.3625 $W=0.150000 $SI_W=0.15 $TYPE=10 $DIR=1 $LLX=1.260000 $LLY=0.245000 $URX=1.410000 $URY=0.607500 $lvl=3
RgJ371 SEb SEb:9 103.674629 $poly  $L=0.3225 $W=0.150000 $SI_W=0.15 $TYPE=10 $DIR=1 $LLX=1.260000 $LLY=0.607500 $URX=1.410000 $URY=0.930000 $lvl=3
RgJ372 SEb:9 SEb:10 34.134449 $poly  $L=0.1645 $W=0.270000 $SI_W=0.27 $TYPE=10 $DIR=1 $LLX=1.200000 $LLY=0.930500 $URX=1.470000 $URY=1.095000 $lvl=3
RgJ373 SEb:11 Mmp14:g 173.519989 $poly  $L=0.54 $W=0.150000 $SI_W=0.15 $TYPE=10 $DIR=1 $LLX=1.690000 $LLY=3.355000 $URX=1.840000 $URY=3.895000 $lvl=3
RgJ374 Mmp14:g SEb:12 236.224625 $poly  $L=0.735 $W=0.150000 $SI_W=0.15 $TYPE=10 $DIR=1 $LLX=1.690000 $LLY=2.619500 $URX=1.840000 $URY=3.354500 $lvl=3
RgJ375 SEb:12 SEb:13 34.134449 $poly  $L=0.1645 $W=0.270000 $SI_W=0.27 $TYPE=10 $DIR=1 $LLX=1.630000 $LLY=2.455000 $URX=1.900000 $URY=2.619500 $lvl=3
RhJ376 Mmn10:d SEb:22 15.000000 $licon_diff  $L=0.17 $W=0.17 $A=0.0289 $VC=0 $SAVL=0 $SAVC=0 $SI_A=0.0289 $COVER_DIR=0 $LLX=0.000000 $LLY=0.000000 $URX=0.170000 $URY=0.170000 $lvl=5
Rh_2_J377 Mmp10:d SEb:16 7.500000 $licon_diff  $A=0.0578 $VC=0 $SAVL=0 $SAVC=0 $SI_A=0.0578 $COVER_DIR=0 $LLX=0.000000 $LLY=0.000000 $URX=-0.057800 $URY=-2.000000 $lvl=5
RjJ378 SEb:17 SEb:33 152.000000 $mcon  $L=0.17 $W=0.17 $A=0.0289 $VC=0 $SAVL=0 $SAVC=0 $SI_A=0.0289 $COVER_DIR=0 $LLX=0.000000 $LLY=0.000000 $URX=0.170000 $URY=0.170000 $lvl=6
RjJ379 SEb:30 SEb:34 152.000000 $mcon  $L=0.17 $W=0.17 $A=0.0289 $VC=0 $SAVL=0 $SAVC=0 $SI_A=0.0289 $COVER_DIR=0 $LLX=0.000000 $LLY=0.000000 $URX=0.170000 $URY=0.170000 $lvl=6
RjJ380 SEb:26 SEb:35 152.000000 $mcon  $L=0.17 $W=0.17 $A=0.0289 $VC=0 $SAVL=0 $SAVC=0 $SI_A=0.0289 $COVER_DIR=0 $LLX=0.000000 $LLY=0.000000 $URX=0.170000 $URY=0.170000 $lvl=6
RjJ381 SEb:20 SEb:36 152.000000 $mcon  $L=0.17 $W=0.17 $A=0.0289 $VC=0 $SAVL=0 $SAVC=0 $SI_A=0.0289 $COVER_DIR=0 $LLX=0.000000 $LLY=0.000000 $URX=0.170000 $URY=0.170000 $lvl=6
RiJ382 SEb:10 SEb:25 15.000000 $licon  $L=0.17 $W=0.17 $A=0.0289 $VC=0 $SAVL=0 $SAVC=0 $SI_A=0.0289 $COVER_DIR=0 $LLX=0.000000 $LLY=0.000000 $URX=0.170000 $URY=0.170000 $lvl=7
RiJ383 SEb:13 SEb:29 15.000000 $licon  $L=0.17 $W=0.17 $A=0.0289 $VC=0 $SAVL=0 $SAVC=0 $SI_A=0.0289 $COVER_DIR=0 $LLX=0.000000 $LLY=0.000000 $URX=0.170000 $URY=0.170000 $lvl=7
RmwJ384 Mmn12:g SEb 0.001000 $poly $W=1000000 $SI_W=1000000 $TYPE=1 $DIR=0
*
*|NET RN 2.78005e-15
*|P (RN X 0 5.0750 1.5700) // $llx=5.0750 $lly=1.5700 $urx=5.0750 $ury=1.5700 $lvl=1
*|I (Mmp45:g Mmp45 g X 0 8.4850 3.1850) // $llx=8.4850 $lly=3.1850 $urx=8.4850 $ury=3.1850 $lvl=3
*|I (Mmp45@1:g Mmp45@1 g X 0 8.9150 3.1850) // $llx=8.9150 $lly=3.1850 $urx=8.9150 $ury=3.1850 $lvl=3
*|I (Mmp35:g Mmp35 g X 0 4.8650 3.3550) // $llx=4.8650 $lly=3.3550 $urx=4.8650 $ury=3.3550 $lvl=3
*|I (Mmn45@1:g Mmn45@1 g X 0 8.4850 0.6950) // $llx=8.4850 $lly=0.6950 $urx=8.4850 $ury=0.6950 $lvl=3
*|I (Mmn45:g Mmn45 g X 0 8.9150 0.6950) // $llx=8.9150 $lly=0.6950 $urx=8.9150 $ury=0.6950 $lvl=3
*|I (Mmn35:g Mmn35 g X 0 4.8650 0.6075) // $llx=4.8650 $lly=0.6075 $urx=4.8650 $ury=0.6075 $lvl=3
*|S (RN:22 4.8650 3.8950) // $llx=4.8650 $lly=3.8950 $urx=4.8650 $ury=3.8950 $lvl=3
*|S (RN:23 4.8650 1.4350) // $llx=4.8650 $lly=1.4350 $urx=4.8650 $ury=1.4350 $lvl=3
*|S (RN:24 4.8650 1.2700) // $llx=4.8650 $lly=1.2700 $urx=4.8650 $ury=1.2700 $lvl=3
*|S (RN:25 4.8650 0.2450) // $llx=4.8650 $lly=0.2450 $urx=4.8650 $ury=0.2450 $lvl=3
*|S (RN:26 8.9150 3.8950) // $llx=8.9150 $lly=3.8950 $urx=8.9150 $ury=3.8950 $lvl=3
*|S (RN:27 8.9150 1.4350) // $llx=8.9150 $lly=1.4350 $urx=8.9150 $ury=1.4350 $lvl=3
*|S (RN:28 8.7000 1.4350) // $llx=8.7000 $lly=1.4350 $urx=8.7000 $ury=1.4350 $lvl=3
*|S (RN:29 8.4850 1.4350) // $llx=8.4850 $lly=1.4350 $urx=8.4850 $ury=1.4350 $lvl=3
*|S (RN:30 8.4750 1.2700) // $llx=8.4750 $lly=1.2700 $urx=8.4750 $ury=1.2700 $lvl=3
*|S (RN:31 8.9250 1.2700) // $llx=8.9250 $lly=1.2700 $urx=8.9250 $ury=1.2700 $lvl=3
*|S (RN:32 8.9150 0.2450) // $llx=8.9150 $lly=0.2450 $urx=8.9150 $ury=0.2450 $lvl=3
*|S (RN:33 8.4750 1.5995) // $llx=8.4750 $lly=1.5995 $urx=8.4750 $ury=1.5995 $lvl=3
*|S (RN:34 8.4850 3.8950) // $llx=8.4850 $lly=3.8950 $urx=8.4850 $ury=3.8950 $lvl=3
*|S (RN:35 8.4850 0.2450) // $llx=8.4850 $lly=0.2450 $urx=8.4850 $ury=0.2450 $lvl=3
*|S (RN:36 9.0400 1.4350) // $llx=9.0400 $lly=1.4350 $urx=9.0400 $ury=1.4350 $lvl=2
*|S (RN:37 8.7000 1.4350) // $llx=8.7000 $lly=1.4350 $urx=8.7000 $ury=1.4350 $lvl=2
*|S (RN:38 5.0600 1.4350) // $llx=5.0600 $lly=1.4350 $urx=5.0600 $ury=1.4350 $lvl=2
*|S (RN:39 4.8650 1.4350) // $llx=4.8650 $lly=1.4350 $urx=4.8650 $ury=1.4350 $lvl=2
*|S (RN:40 4.7000 1.4350) // $llx=4.7000 $lly=1.4350 $urx=4.7000 $ury=1.4350 $lvl=2
*|S (RN:41 5.0600 2.2150) // $llx=5.0600 $lly=2.2150 $urx=5.0600 $ury=2.2150 $lvl=1
*|S (RN:42 5.0600 1.4350) // $llx=5.0600 $lly=1.4350 $urx=5.0600 $ury=1.4350 $lvl=1
*|S (RN:43 5.0600 0.9750) // $llx=5.0600 $lly=0.9750 $urx=5.0600 $ury=0.9750 $lvl=1
CE1 Mmn35:g VSS! 2.32876e-18 $lvl=3
CE2 Mmn45:g VSS! 3.82742e-18 $lvl=3
CE3 Mmn45@1:g VSS! 3.97696e-18 $lvl=3
CE4 RN:41 VSS! 1.96216e-17 $lvl=1
CE5 RN:43 VSS! 1.44548e-17 $lvl=1
CE6 RN:26 VSS! 4.8904e-18 $lvl=3
CE7 RN:34 VSS! 5.67831e-18 $lvl=3
CE8 RN:22 VSS! 6.00207e-18 $lvl=3
CE9 RN:37 VSS! 2.67029e-17 $lvl=2
CE10 RN:40 VSS! 5.67637e-18 $lvl=2
CE11 RN:38 VSS! 2.51786e-17 $lvl=2
CE12 RN:23 VSS! 2.63586e-17 $lvl=3
CE13 RN:28 VSS! 3.94343e-17 $lvl=3
CE14 RN:37 n9:6 5.91546e-18 $lvl1=2 $lvl2=2
CE15 RN:28 n9 4.40273e-18 $lvl1=3 $lvl2=2
CE16 RN:28 n9:6 4.05081e-18 $lvl1=3 $lvl2=2
CE17 RN:37 n9:20 1.81909e-18 $lvl1=2 $lvl2=1
CE18 Mmn45@1:g n9:5 1.65083e-18 $lvl1=3 $lvl2=2
CE19 RN:37 n9:18 1.58571e-18 $lvl1=2 $lvl2=1
CE20 Mmn45:g n9:10 1.51012e-18 $lvl1=3 $lvl2=2
CE21 RN:28 Mmn45@1:d 1.16591e-18 $lvl1=3 $lvl2=4
CE22 Mmn45:g n9:6 6.86841e-17 $lvl1=3 $lvl2=2
CE23 RN:37 n9 1.05365e-17 $lvl1=2 $lvl2=2
CE24 Mmn45@1:g n9 7.12842e-17 $lvl1=3 $lvl2=2
CE25 RN:41 n6:14 4.12778e-18 $lvl1=1 $lvl2=1
CE26 RN:43 n7 1.05673e-18 $lvl1=1 $lvl2=2
CE27 RN:23 n7:3 8.72169e-19 $lvl1=3 $lvl2=2
CE28 RN:23 Mmn36:s 5.49143e-19 $lvl1=3 $lvl2=4
CE29 Mmn35:g n7 4.99071e-19 $lvl1=3 $lvl2=2
CE30 Mmn35:g n7:4 4.0213e-19 $lvl1=3 $lvl2=2
CE31 RN:41 n7:3 2.96377e-19 $lvl1=1 $lvl2=2
CE32 RN:23 n7 2.76053e-19 $lvl1=3 $lvl2=2
CE33 RN:43 n7:3 1.79248e-18 $lvl1=1 $lvl2=2
CE34 RN:22 n6:6 1.28101e-16 $lvl1=3 $lvl2=2
CE35 RN:41 n6:11 8.61294e-18 $lvl1=1 $lvl2=1
CE36 Mmn35:g n7:3 6.44566e-17 $lvl1=3 $lvl2=2
CE37 RN:37 qbint:82 4.71658e-18 $lvl1=2 $lvl2=1
CE38 RN:37 qbint:84 4.53153e-18 $lvl1=2 $lvl2=1
CE39 RN:37 qbint:86 4.18446e-18 $lvl1=2 $lvl2=1
CE40 RN:37 qbint:77 3.63163e-18 $lvl1=2 $lvl2=2
CE41 RN:37 qbint:45 2.5362e-18 $lvl1=2 $lvl2=3
CE42 RN:28 qbint:77 2.25209e-18 $lvl1=3 $lvl2=2
CE43 RN:34 qbint:64 2.0436e-18 $lvl1=3 $lvl2=2
CE44 RN:37 qbint:64 1.74748e-18 $lvl1=2 $lvl2=2
CE45 RN:28 qbint:64 1.72472e-18 $lvl1=3 $lvl2=2
CE46 RN:37 qbint:80 1.23224e-18 $lvl1=2 $lvl2=2
CE47 RN:37 qbint 1.12315e-18 $lvl1=2 $lvl2=3
CE48 RN:26 qbint:67 1.96676e-16 $lvl1=3 $lvl2=2
CE49 RN:34 qbint:67 1.9099e-16 $lvl1=3 $lvl2=2
CE50 RN:28 n30:17 6.73453e-18 $lvl1=3 $lvl2=3
CE51 RN:28 n30:38 5.13425e-18 $lvl1=3 $lvl2=2
CE52 RN:37 n30:40 4.51865e-18 $lvl1=2 $lvl2=1
CE53 RN:38 n30:41 4.42483e-18 $lvl1=2 $lvl2=1
CE54 RN:37 n30:45 3.27198e-18 $lvl1=2 $lvl2=1
CE55 RN:37 n30:36 4.69457e-17 $lvl1=2 $lvl2=2
CE56 RN:37 n30:41 1.11452e-17 $lvl1=2 $lvl2=1
CE57 RN:28 n30:36 2.28281e-17 $lvl1=3 $lvl2=2
CE58 RN:37 n30:37 1.34277e-17 $lvl1=2 $lvl2=2
CE59 RN:37 n30:38 7.69473e-17 $lvl1=2 $lvl2=2
CE60 RN:38 mout:30 7.56222e-18 $lvl1=2 $lvl2=1
CE61 RN:23 mout:9 2.1828e-18 $lvl1=3 $lvl2=3
CE62 RN:38 mout:22 1.9474e-18 $lvl1=2 $lvl2=2
CE63 RN:23 mout:25 1.8974e-18 $lvl1=3 $lvl2=2
CE64 RN:41 mout:28 1.37125e-18 $lvl1=1 $lvl2=1
CE65 RN:38 mout:25 1.32217e-18 $lvl1=2 $lvl2=2
CE66 RN:41 mout:25 1.83385e-17 $lvl1=1 $lvl2=2
CE67 RN:38 mout:28 1.0812e-17 $lvl1=2 $lvl2=1
CE68 RN:41 Ckbb:38 9.76426e-18 $lvl1=1 $lvl2=2
CE69 RN:23 Ckbb:48 9.32897e-18 $lvl1=3 $lvl2=2
CE70 RN:38 Ckbb:23 8.99181e-18 $lvl1=2 $lvl2=3
CE71 RN:40 Ckbb:48 8.77217e-18 $lvl1=2 $lvl2=2
CE72 RN:43 Ckbb:56 8.57205e-18 $lvl1=1 $lvl2=1
CE73 RN:23 Ckbb:49 6.47296e-18 $lvl1=3 $lvl2=2
CE74 RN:43 Ckbb:49 5.13972e-18 $lvl1=1 $lvl2=2
CE75 RN:37 Ckbb:23 4.18682e-18 $lvl1=2 $lvl2=3
CE76 RN:41 Ckbb:49 3.42891e-18 $lvl1=1 $lvl2=2
CE77 RN:37 Ckbb:58 1.92507e-18 $lvl1=2 $lvl2=1
CE78 RN:41 Ckbb:39 1.892e-18 $lvl1=1 $lvl2=2
CE79 RN:38 Ckbb:53 1.77428e-18 $lvl1=2 $lvl2=1
CE80 RN:41 Ckbb:51 1.72436e-18 $lvl1=1 $lvl2=1
CE81 RN:41 Ckbb:48 1.6859e-18 $lvl1=1 $lvl2=2
CE82 RN:22 Ckbb:38 1.60794e-18 $lvl1=3 $lvl2=2
CE83 Mmn35:g Ckbb:48 1.51863e-18 $lvl1=3 $lvl2=2
CE84 Mmn35:g Ckbb:49 1.453e-18 $lvl1=3 $lvl2=2
CE85 RN:41 Ckbb:56 1.41101e-18 $lvl1=1 $lvl2=1
CE86 RN:23 Ckbb:20 1.31858e-18 $lvl1=3 $lvl2=3
CE87 RN:28 Ckbb:45 1.12063e-18 $lvl1=3 $lvl2=2
CE88 RN:38 Ckbb:32 1.08838e-18 $lvl1=2 $lvl2=2
CE89 RN:38 Ckbb:49 1.0549e-18 $lvl1=2 $lvl2=2
CE90 RN:34 Ckbb:41 8.07036e-19 $lvl1=3 $lvl2=2
CE91 RN:37 Ckbb:47 3.2139e-17 $lvl1=2 $lvl2=2
CE92 RN:41 Ckbb:54 3.12478e-17 $lvl1=1 $lvl2=1
CE93 RN:43 Ckbb:54 2.37065e-17 $lvl1=1 $lvl2=1
CE94 RN:38 Ckbb:54 1.84311e-17 $lvl1=2 $lvl2=1
CE95 RN:38 Ckbb:48 8.7462e-17 $lvl1=2 $lvl2=2
CE96 RN:37 Ckbb:45 5.38441e-17 $lvl1=2 $lvl2=2
CE97 RN:37 Ckbb:59 2.147e-17 $lvl1=2 $lvl2=1
CE98 RN:41 Ckbb:53 3.67267e-17 $lvl1=1 $lvl2=1
CE99 RN:38 Ckbb:47 4.07085e-17 $lvl1=2 $lvl2=2
CE100 RN:37 Ckbb:46 1.3557e-17 $lvl1=2 $lvl2=2
CE101 RN:43 Ckbb:48 1.28593e-17 $lvl1=1 $lvl2=2
CE102 RN:40 Ckbb:49 1.37772e-17 $lvl1=2 $lvl2=2
CE103 RN:41 n20:26 6.40239e-18 $lvl1=1 $lvl2=1
CE104 RN:41 n20:28 6.05453e-18 $lvl1=1 $lvl2=1
CE105 RN:43 n20:26 4.42064e-18 $lvl1=1 $lvl2=1
CE106 RN:37 CKb:33 9.66012e-18 $lvl1=2 $lvl2=3
CE107 RN:23 CKb:48 8.99128e-18 $lvl1=3 $lvl2=2
CE108 RN:41 CKb:49 8.35452e-18 $lvl1=1 $lvl2=2
CE109 RN:40 CKb:48 7.94165e-18 $lvl1=2 $lvl2=2
CE110 RN:23 CKb:49 7.12282e-18 $lvl1=3 $lvl2=2
CE111 RN:38 CKb:33 4.77239e-18 $lvl1=2 $lvl2=3
CE112 RN:38 CKb:28 1.42746e-17 $lvl1=2 $lvl2=3
CE113 RN:40 CKb:49 1.28937e-17 $lvl1=2 $lvl2=2
CE114 RN:38 CKb:48 9.16402e-17 $lvl1=2 $lvl2=2
CE115 RN:41 CKb:48 1.52625e-17 $lvl1=1 $lvl2=2
CE116 RN:37 CKb:46 1.96887e-17 $lvl1=2 $lvl2=2
CE117 RN:38 CKb:46 2.97959e-17 $lvl1=2 $lvl2=2
CE118 RN:37 VSS!:37 9.8664e-18 $lvl1=2 $lvl2=2
CE119 Mmn35:g VSS!:19 9.18869e-18 $lvl1=3 $lvl2=2
CE120 Mmn45:g VSS!:13 9.02305e-18 $lvl1=3 $lvl2=2
CE121 RN:28 VSS!:37 7.15241e-18 $lvl1=3 $lvl2=2
CE122 Mmn45@1:g VSS!:14 5.31234e-18 $lvl1=3 $lvl2=2
CE123 RN:41 VSS!:56 5.06302e-18 $lvl1=1 $lvl2=1
CE124 RN:43 VSS!:46 4.7464e-18 $lvl1=1 $lvl2=2
CE125 Mmn45@1:g VSS!:13 4.62325e-18 $lvl1=3 $lvl2=2
CE126 RN:37 VSS!:40 2.35882e-18 $lvl1=2 $lvl2=2
CE127 RN:23 VSS!:46 1.37814e-18 $lvl1=3 $lvl2=2
CE128 Mmn45@1:g VSS!:37 6.82105e-17 $lvl1=3 $lvl2=2
CE129 Mmn35:g VSS!:46 6.95733e-17 $lvl1=3 $lvl2=2
CE130 Mmn45:g VSS!:37 7.07521e-17 $lvl1=3 $lvl2=2
CE131 RN:43 VSS!:56 1.14225e-17 $lvl1=1 $lvl2=1
CE132 RN:34 VDD!:12 8.60686e-18 $lvl1=3 $lvl2=2
CE133 RN:22 VDD!:5 7.36531e-18 $lvl1=3 $lvl2=2
CE134 RN:41 VDD! 6.25591e-18 $lvl1=1 $lvl2=1
CE135 RN:26 VDD!:12 4.65191e-18 $lvl1=3 $lvl2=2
CE136 RN:26 VDD!:13 4.1488e-18 $lvl1=3 $lvl2=2
CE137 RN:43 VDD! 3.79779e-18 $lvl1=1 $lvl2=1
CE138 RN:28 VDD! 2.86191e-18 $lvl1=3 $lvl2=1
CE139 RN:41 VDD!:64 1.98441e-18 $lvl1=1 $lvl2=1
CE140 RN:37 VDD! 1.80989e-18 $lvl1=2 $lvl2=1
CE141 RN:26 VDD!:41 1.82256e-16 $lvl1=3 $lvl2=2
CE142 RN:34 VDD!:37 1.9846e-16 $lvl1=3 $lvl2=2
CE143 RN:22 VDD!:29 1.34958e-16 $lvl1=3 $lvl2=2
ReE90 RN:41 RN 0.310096 $metal1  $L=0.645 $W=0.260000 $SI_W=0.26 $TYPE=10 $DIR=1 $LLX=4.930000 $LLY=1.570000 $URX=5.190000 $URY=2.215000 $lvl=1
ReE91 RN RN:42 0.064904 $metal1  $L=0.135 $W=0.260000 $SI_W=0.26 $TYPE=10 $DIR=1 $LLX=4.945000 $LLY=1.435000 $URX=5.205000 $URY=1.570000 $lvl=1
ReE92 RN:42 RN:43 0.221154 $metal1  $L=0.46 $W=0.260000 $SI_W=0.26 $TYPE=10 $DIR=1 $LLX=4.930000 $LLY=0.975000 $URX=5.190000 $URY=1.435000 $lvl=1
RfE93 RN:36 RN:37 25.600000 $li  $L=0.34 $W=0.170000 $SI_W=0.17 $TYPE=10 $DIR=0 $LLX=8.700000 $LLY=1.350000 $URX=9.040000 $URY=1.520000 $lvl=2
RfE94 RN:37 RN:38 274.070587 $li  $L=3.64 $W=0.170000 $SI_W=0.17 $TYPE=10 $DIR=0 $LLX=5.060000 $LLY=1.350000 $URX=8.700000 $URY=1.520000 $lvl=2
RfE95 RN:38 RN:39 14.682353 $li  $L=0.195 $W=0.170000 $SI_W=0.17 $TYPE=10 $DIR=0 $LLX=4.865000 $LLY=1.350000 $URX=5.060000 $URY=1.520000 $lvl=2
RfE96 RN:39 RN:40 12.423529 $li  $L=0.165 $W=0.170000 $SI_W=0.17 $TYPE=10 $DIR=0 $LLX=4.700000 $LLY=1.350000 $URX=4.865000 $URY=1.520000 $lvl=2
RgE97 RN:22 Mmp35:g 173.519989 $poly  $L=0.54 $W=0.150000 $SI_W=0.15 $TYPE=10 $DIR=1 $LLX=4.790000 $LLY=3.355000 $URX=4.940000 $URY=3.895000 $lvl=3
RgE98 Mmp35:g RN:23 598.119080 $poly  $L=1.92 $W=0.150000 $SI_W=0.15 $TYPE=10 $DIR=1 $LLX=4.790000 $LLY=1.435000 $URX=4.940000 $URY=3.355000 $lvl=3
RgE99 RN:23 RN:24 34.134449 $poly  $L=0.1645 $W=0.270000 $SI_W=0.27 $TYPE=10 $DIR=1 $LLX=4.730000 $LLY=1.270500 $URX=5.000000 $URY=1.435000 $lvl=3
RgE100 RN:24 Mmn35:g 212.927963 $poly  $L=0.6625 $W=0.150000 $SI_W=0.15 $TYPE=10 $DIR=1 $LLX=4.790000 $LLY=0.607500 $URX=4.940000 $URY=1.270000 $lvl=3
RgE101 Mmn35:g RN:25 116.483322 $poly  $L=0.3625 $W=0.150000 $SI_W=0.15 $TYPE=10 $DIR=1 $LLX=4.790000 $LLY=0.245000 $URX=4.940000 $URY=0.607500 $lvl=3
RgE102 RN:26 Mmp45@1:g 228.146683 $poly  $L=0.71 $W=0.150000 $SI_W=0.15 $TYPE=10 $DIR=1 $LLX=8.840000 $LLY=3.185000 $URX=8.990000 $URY=3.895000 $lvl=3
RgE103 Mmp45@1:g RN:27 556.812195 $poly  $L=1.74975 $W=0.150000 $SI_W=0.15 $TYPE=10 $DIR=1 $LLX=8.840000 $LLY=1.435000 $URX=8.990000 $URY=3.185000 $lvl=3
RgE104 RN:27 RN:28 31.439547 $poly  $L=0.21525 $W=0.330000 $SI_W=0.33 $TYPE=10 $DIR=0 $LLX=8.700000 $LLY=1.270000 $URX=8.915000 $URY=1.600000 $lvl=3
RgE105 RN:28 RN:29 31.366514 $poly  $L=0.21475 $W=0.330000 $SI_W=0.33 $TYPE=10 $DIR=0 $LLX=8.485000 $LLY=1.270000 $URX=8.700000 $URY=1.600000 $lvl=3
RgE106 RN:29 RN:30 46.784668 $poly  $L=0.16475 $W=0.170000 $SI_W=0.17 $TYPE=10 $DIR=1 $LLX=8.390000 $LLY=1.270000 $URX=8.560000 $URY=1.435000 $lvl=3
RgE107 RN:30 Mmn45@1:g 184.837555 $poly  $L=0.575 $W=0.150000 $SI_W=0.15 $TYPE=10 $DIR=1 $LLX=8.410000 $LLY=0.695000 $URX=8.560000 $URY=1.270000 $lvl=3
RgE108 RN:27 RN:31 46.784668 $poly  $L=0.16475 $W=0.170000 $SI_W=0.17 $TYPE=10 $DIR=1 $LLX=8.840000 $LLY=1.270000 $URX=9.010000 $URY=1.435000 $lvl=3
RgE109 RN:31 Mmn45:g 184.837555 $poly  $L=0.575 $W=0.150000 $SI_W=0.15 $TYPE=10 $DIR=1 $LLX=8.840000 $LLY=0.695000 $URX=8.990000 $URY=1.270000 $lvl=3
RgE110 Mmn45:g RN:32 144.600006 $poly  $L=0.45 $W=0.150000 $SI_W=0.15 $TYPE=10 $DIR=1 $LLX=8.840000 $LLY=0.245000 $URX=8.990000 $URY=0.695000 $lvl=3
RgE111 RN:29 RN:33 46.642902 $poly  $L=0.16425 $W=0.170000 $SI_W=0.17 $TYPE=10 $DIR=1 $LLX=8.390000 $LLY=1.435500 $URX=8.560000 $URY=1.599500 $lvl=3
RgE112 RN:33 Mmp45:g 509.384216 $poly  $L=1.585 $W=0.150000 $SI_W=0.15 $TYPE=10 $DIR=1 $LLX=8.410000 $LLY=1.599500 $URX=8.560000 $URY=3.184500 $lvl=3
RgE113 Mmp45:g RN:34 228.146683 $poly  $L=0.71 $W=0.150000 $SI_W=0.15 $TYPE=10 $DIR=1 $LLX=8.410000 $LLY=3.185000 $URX=8.560000 $URY=3.895000 $lvl=3
RgE114 Mmn45@1:g RN:35 144.600006 $poly  $L=0.45 $W=0.150000 $SI_W=0.15 $TYPE=10 $DIR=1 $LLX=8.410000 $LLY=0.245000 $URX=8.560000 $URY=0.695000 $lvl=3
RjE115 RN:38 RN:42 152.000000 $mcon  $L=0.17 $W=0.17 $A=0.0289 $VC=0 $SAVL=0 $SAVC=0 $SI_A=0.0289 $COVER_DIR=0 $LLX=0.000000 $LLY=0.000000 $URX=0.170000 $URY=0.170000 $lvl=6
RiE116 RN:28 RN:37 7.500000 $licon  $A=0.0578 $VC=0 $SAVL=0 $SAVC=0 $SI_A=0.0578 $COVER_DIR=0 $LLX=0.000000 $LLY=0.000000 $URX=-0.057800 $URY=-2.000000 $lvl=7
RiE117 RN:23 RN:39 15.000000 $licon  $L=0.17 $W=0.17 $A=0.0289 $VC=0 $SAVL=0 $SAVC=0 $SI_A=0.0289 $COVER_DIR=0 $LLX=0.000000 $LLY=0.000000 $URX=0.170000 $URY=0.170000 $lvl=7
*
*|NET Q 3.32501e-15
*|P (Q X 0 12.4350 1.8450) // $llx=12.4350 $lly=1.8450 $urx=12.4350 $ury=1.8450 $lvl=1
*|I (Mmp55:d Mmp55 d X 0 11.2305 3.0150) // $llx=11.2305 $lly=3.0150 $urx=11.2305 $ury=3.0150 $lvl=4
*|I (Mmp55@1:d Mmp55@1 d X 0 11.5095 3.0150) // $llx=11.5095 $lly=3.0150 $urx=11.5095 $ury=3.0150 $lvl=4
*|I (Mmp55@3:d Mmp55@3 d X 0 12.0905 3.0150) // $llx=12.0905 $lly=3.0150 $urx=12.0905 $ury=3.0150 $lvl=4
*|I (Mmp55@2:d Mmp55@2 d X 0 12.3695 3.0150) // $llx=12.3695 $lly=3.0150 $urx=12.3695 $ury=3.0150 $lvl=4
*|I (Mmn55@3:d Mmn55@3 d X 0 11.2305 0.7750) // $llx=11.2305 $lly=0.7750 $urx=11.2305 $ury=0.7750 $lvl=4
*|I (Mmn55:d Mmn55 d X 0 11.5095 0.7750) // $llx=11.5095 $lly=0.7750 $urx=11.5095 $ury=0.7750 $lvl=4
*|I (Mmn55@1:d Mmn55@1 d X 0 12.0905 0.7750) // $llx=12.0905 $lly=0.7750 $urx=12.0905 $ury=0.7750 $lvl=4
*|I (Mmn55@2:d Mmn55@2 d X 0 12.3695 0.7750) // $llx=12.3695 $lly=0.7750 $urx=12.3695 $ury=0.7750 $lvl=4
*|S (Q:1 11.3700 3.7450) // $llx=11.3700 $lly=3.7450 $urx=11.3700 $ury=3.7450 $lvl=2
*|S (Q:3 11.3700 3.0150) // $llx=11.3700 $lly=3.0150 $urx=11.3700 $ury=3.0150 $lvl=2
*|S (Q:4 11.3700 2.7500) // $llx=11.3700 $lly=2.7500 $urx=11.3700 $ury=2.7500 $lvl=2
*|S (Q:5 11.3700 1.1550) // $llx=11.3700 $lly=1.1550 $urx=11.3700 $ury=1.1550 $lvl=2
*|S (Q:6 11.3700 0.8100) // $llx=11.3700 $lly=0.8100 $urx=11.3700 $ury=0.8100 $lvl=2
*|S (Q:8 11.3700 0.7750) // $llx=11.3700 $lly=0.7750 $urx=11.3700 $ury=0.7750 $lvl=2
*|S (Q:9 11.3700 0.3950) // $llx=11.3700 $lly=0.3950 $urx=11.3700 $ury=0.3950 $lvl=2