*
*|DSPF 1.5
*
*|DATE "Wed Jan  8 18:54:30 2025"
*|VENDOR "Cadence Design Systems"
*|PROGRAM "Cadence Quantus Extraction"
*|VERSION "22.1.0-p089 Linux 64 bit - (Thu Jan 19 11:47:08 PST 2023)"
*|DESIGN SDFFX4_HS
*|DIVIDER /
*|DELIMITER :
*|DeviceFingerDelim "@"
*|BUSBIT []
*|GLOBAL_TEMPERATURE 25
*|OPERATING_TEMPERATURE 25

** *VIA_COVERAGE_CODES
** *index FF FS FP FU SF SS SP SU PF PS PP PU UF US UP UU X_by_Y
** * "FF" stands for Full landing and Full coverage
** *0 0 0 0 0 0 0 0 0 0 0 0 0 0 0 0 0
** *1 0 0 0 0 0 0 0 0 0 0 0 0 0 0 0 1 1x1
** *2 0 0 0 0 0 0 0 0 0 0 0 0 0 0 1 0 1x1
** *3 0 0 0 0 0 0 0 0 0 0 0 0 0 1 0 0 1x1
** *4 0 0 0 0 0 0 0 0 0 0 0 0 1 0 0 0 1x1
** *5 0 0 0 0 0 0 0 0 0 0 0 1 0 0 0 0 1x1
** *6 0 0 0 0 0 0 0 0 0 0 1 0 0 0 0 0 1x1
** *7 0 0 0 0 0 0 0 0 0 1 0 0 0 0 0 0 1x1
** *8 0 0 0 0 0 0 0 0 1 0 0 0 0 0 0 0 1x1
** *9 0 0 0 0 0 0 0 1 0 0 0 0 0 0 0 0 1x1
** *10 0 0 0 0 0 0 1 0 0 0 0 0 0 0 0 0 1x1
** *11 0 0 0 0 0 1 0 0 0 0 0 0 0 0 0 0 1x1
** *12 0 0 0 0 1 0 0 0 0 0 0 0 0 0 0 0 1x1
** *13 0 0 0 1 0 0 0 0 0 0 0 0 0 0 0 0 1x1
** *14 0 0 1 0 0 0 0 0 0 0 0 0 0 0 0 0 1x1
** *15 0 1 0 0 0 0 0 0 0 0 0 0 0 0 0 0 1x1
** *16 1 0 0 0 0 0 0 0 0 0 0 0 0 0 0 0 1x1

** *RESISTOR_TYPES
** *1 SHORTING_ELEMENT
** *2 PRES_NG
** *3 PRES_PG
** *4 PRES_NF
** *5 PRES_PF
** *6 TCN_NDIFF
** *7 TCN_PDIFF
** *8 TCN_NFIELD
** *9 TCN_PFIELD
** *10 QUALITY_EXTRACTED
** *11 GCNLAND
** *12 TCNLAND
** *13 DUMMY
** *14 RSD
** *15 BRIDGE

** *RESISTOR_CURRENT_DIRECTION
** *0 HORIZONTAL
** *1 VERTICAL
** *2 45 DEGREE

** QRC_TECH_DIR /vols/wfo_devel/projects/reference_SKY130/tech/sky130_release_0.0.4/quantus/extraction/typical 
** HIERARCHICAL_SPLIT_PINS_DELIMITER '%'
** caps2d version: 10
*
.SUBCKT  SDFFX4_HS CK D Q QN SE SI
*
*Net Section
*
*|GROUND_NET VSS!
*
*LAYER_MAP
*0 none
*1 metal1
*2 li
*3 poly
*4 diff
*5 licon_diff
*6 mcon
*7 licon
*8 FOX

*|NET CK 8.85652e-16
*|P (CK X 0 2.3150 1.2300) // $llx=2.3150 $lly=1.2300 $urx=2.3150 $ury=1.2300 $lvl=1
*|I (Mmp20:g Mmp20 g X 0 2.6250 3.3550) // $llx=2.6250 $lly=3.3550 $urx=2.6250 $ury=3.3550 $lvl=3
*|I (Mmn20:g Mmn20 g X 0 2.6250 0.6075) // $llx=2.6250 $lly=0.6075 $urx=2.6250 $ury=0.6075 $lvl=3
*|S (CK:8 2.6250 3.8950) // $llx=2.6250 $lly=3.8950 $urx=2.6250 $ury=3.8950 $lvl=3
*|S (CK:9 2.6250 1.2550) // $llx=2.6250 $lly=1.2550 $urx=2.6250 $ury=1.2550 $lvl=3
*|S (CK:10 2.6250 1.0900) // $llx=2.6250 $lly=1.0900 $urx=2.6250 $ury=1.0900 $lvl=3
*|S (CK:11 2.6250 0.2450) // $llx=2.6250 $lly=0.2450 $urx=2.6250 $ury=0.2450 $lvl=3
*|S (CK:12 2.7900 1.2550) // $llx=2.7900 $lly=1.2550 $urx=2.7900 $ury=1.2550 $lvl=2
*|S (CK:13 2.6250 1.2550) // $llx=2.6250 $lly=1.2550 $urx=2.6250 $ury=1.2550 $lvl=2
*|S (CK:14 2.3000 1.2550) // $llx=2.3000 $lly=1.2550 $urx=2.3000 $ury=1.2550 $lvl=2
*|S (CK:15 2.1350 1.2550) // $llx=2.1350 $lly=1.2550 $urx=2.1350 $ury=1.2550 $lvl=2
*|S (CK:16 2.3000 1.2550) // $llx=2.3000 $lly=1.2550 $urx=2.3000 $ury=1.2550 $lvl=1
CA1 Mmn20:g VSS! 2.04838e-18 $lvl=3
CA2 CK:8 VSS! 3.93748e-18 $lvl=3
CA3 CK:12 VSS! 5.19914e-18 $lvl=2
CA4 CK:15 VSS! 1.18799e-17 $lvl=2
CA5 CK:14 VSS! 3.90442e-18 $lvl=2
CA6 CK:9 VSS! 2.57879e-17 $lvl=3
CA7 CK VSS! 1.60788e-17 $lvl=1
CA8 CK:14 net461:3 8.66591e-19 $lvl1=2 $lvl2=2
CA9 CK:9 net461:3 7.03197e-19 $lvl1=3 $lvl2=2
CA10 CK:9 net461 4.22486e-19 $lvl1=3 $lvl2=2
CA11 Mmn20:g net461:3 4.08989e-19 $lvl1=3 $lvl2=2
CA12 CK:15 net461 2.78487e-18 $lvl1=2 $lvl2=2
CA13 CK:15 net461:3 1.85454e-18 $lvl1=2 $lvl2=2
CA14 CK net461 3.39263e-18 $lvl1=1 $lvl2=2
CA15 CK net461:3 6.3931e-18 $lvl1=1 $lvl2=2
CA16 CK net461:4 1.82942e-18 $lvl1=1 $lvl2=2
CA17 CK:14 net461 1.3436e-18 $lvl1=2 $lvl2=2
CA18 CK:12 CKb:42 4.22336e-18 $lvl1=2 $lvl2=2
CA19 CK CKb:43 3.11833e-18 $lvl1=1 $lvl2=2
CA20 CK:12 CKb:51 2.82154e-18 $lvl1=2 $lvl2=2
CA21 CK:14 CKb:55 1.94837e-18 $lvl1=2 $lvl2=1
CA22 CK:8 CKb:41 1.88323e-18 $lvl1=3 $lvl2=2
CA23 CK CKb:51 1.54451e-18 $lvl1=1 $lvl2=2
CA24 CK:14 CKb:57 1.44873e-18 $lvl1=2 $lvl2=1
CA25 CK:12 CKb:43 1.3205e-18 $lvl1=2 $lvl2=2
CA26 CK:9 Mmn20:d 1.14638e-18 $lvl1=3 $lvl2=4
CA27 CK CKb:52 1.11057e-18 $lvl1=1 $lvl2=2
CA28 CK CKb:42 1.10313e-18 $lvl1=1 $lvl2=2
CA29 CK:15 CKb:52 1.01153e-18 $lvl1=2 $lvl2=2
CA30 CK:14 CKb:52 9.16475e-19 $lvl1=2 $lvl2=2
CA31 CK:9 CKb:51 9.11136e-19 $lvl1=3 $lvl2=2
CA32 CK:9 CKb:55 7.18051e-19 $lvl1=3 $lvl2=1
CA33 CK:9 CKb:50 6.9588e-19 $lvl1=3 $lvl2=2
CA34 CK:9 CKb:57 6.70806e-19 $lvl1=3 $lvl2=1
CA35 CK:14 CKb:51 6.46591e-19 $lvl1=2 $lvl2=2
CA36 CK:12 CKb:50 6.0339e-19 $lvl1=2 $lvl2=2
CA37 CK:9 CKb:24 5.72256e-19 $lvl1=3 $lvl2=3
CA38 CK CKb:53 5.43872e-19 $lvl1=1 $lvl2=1
CA39 CK CKb:46 5.32373e-19 $lvl1=1 $lvl2=2
CA40 Mmn20:g CKb:46 4.80071e-19 $lvl1=3 $lvl2=2
CA41 CK:14 CKb:42 4.7585e-19 $lvl1=2 $lvl2=2
CA42 CK:15 CKb:42 4.72545e-19 $lvl1=2 $lvl2=2
CA43 CK:9 CKb:43 4.63317e-19 $lvl1=3 $lvl2=2
CA44 CK:15 CKb:55 3.46374e-19 $lvl1=2 $lvl2=1
CA45 CK:8 CKb:53 3.16293e-19 $lvl1=3 $lvl2=1
CA46 CK:12 CKb:52 5.68679e-18 $lvl1=2 $lvl2=2
CA47 CK:12 CKb:55 6.54468e-18 $lvl1=2 $lvl2=1
CA48 CK:12 CKb:57 5.35099e-18 $lvl1=2 $lvl2=1
CA49 CK:8 CKb:37 1.30591e-16 $lvl1=3 $lvl2=2
CA50 CK:9 CKb:42 5.74757e-18 $lvl1=3 $lvl2=2
CA51 CK CKb:55 3.22167e-17 $lvl1=1 $lvl2=1
CA52 CK CKb:57 4.75439e-17 $lvl1=1 $lvl2=1
CA53 Mmn20:g CKb:42 6.9356e-17 $lvl1=3 $lvl2=2
CA54 CK:9 CKb:52 6.23969e-18 $lvl1=3 $lvl2=2
CA55 CK Db:27 2.97039e-18 $lvl1=1 $lvl2=1
CA56 CK:15 Db:21 2.53967e-18 $lvl1=2 $lvl2=1
CA57 CK:14 Db:21 2.25351e-18 $lvl1=2 $lvl2=1
CA58 CK:12 Db:27 2.17415e-18 $lvl1=2 $lvl2=1
CA59 CK Db:7 1.82396e-18 $lvl1=1 $lvl2=2
CA60 CK:9 Db:16 1.6863e-18 $lvl1=3 $lvl2=2
CA61 CK:12 Db:16 1.21578e-18 $lvl1=2 $lvl2=2
CA62 CK Db:26 9.59932e-19 $lvl1=1 $lvl2=1
CA63 CK:8 Db:11 9.45571e-19 $lvl1=3 $lvl2=2
CA64 CK Db:6 8.45014e-19 $lvl1=1 $lvl2=2
CA65 Mmn20:g Db:16 7.67931e-19 $lvl1=3 $lvl2=2
CA66 CK:15 Db:6 7.44871e-19 $lvl1=2 $lvl2=2
CA67 CK:9 Db:27 7.22652e-19 $lvl1=3 $lvl2=1
CA68 CK:12 Db:17 3.77369e-19 $lvl1=2 $lvl2=2
CA69 CK Db:10 3.62756e-19 $lvl1=1 $lvl2=2
CA70 CK:9 Mmn25:s 3.59089e-19 $lvl1=3 $lvl2=4
CA71 CK:8 Db:15 3.57249e-19 $lvl1=3 $lvl2=2
CA72 CK Db:23 4.88004e-18 $lvl1=1 $lvl2=1
CA73 CK Db:21 4.02007e-17 $lvl1=1 $lvl2=1
CA74 CK:15 VSS!:47 4.32649e-18 $lvl1=2 $lvl2=2
CA75 CK VSS!:24 3.91077e-18 $lvl1=1 $lvl2=2
CA76 CK:14 VSS!:47 3.40232e-18 $lvl1=2 $lvl2=2
CA77 CK:12 VSS!:47 2.77574e-18 $lvl1=2 $lvl2=2
CA78 CK VSS!:22 2.58775e-18 $lvl1=1 $lvl2=2
CA79 CK VSS!:53 5.84789e-17 $lvl1=1 $lvl2=1
CA80 CK VSS!:47 1.53451e-17 $lvl1=1 $lvl2=2
CA81 CK:9 VSS!:47 4.82234e-18 $lvl1=3 $lvl2=2
CA82 Mmn20:g VSS!:24 8.03337e-18 $lvl1=3 $lvl2=2
CA83 Mmn20:g VSS!:47 6.66819e-17 $lvl1=3 $lvl2=2
CA84 CK:8 VDD!:5 9.16963e-18 $lvl1=3 $lvl2=2
CA85 CK:8 VDD!:19 1.29383e-16 $lvl1=3 $lvl2=2
CA86 CK VDD! 8.40043e-18 $lvl1=1 $lvl2=1
CA87 CK:9 SI:9 3.21202e-18 $lvl1=3 $lvl2=3
CA88 CK:15 SI:9 2.51616e-18 $lvl1=2 $lvl2=3
CA89 CK:9 Mmn13:g 1.97079e-18 $lvl1=3 $lvl2=3
CA90 CK SI:16 1.82457e-18 $lvl1=1 $lvl2=1
CA91 CK SI:15 1.80683e-18 $lvl1=1 $lvl2=2
CA92 CK:15 SI:15 1.57216e-18 $lvl1=2 $lvl2=2
CA93 CK:9 SI:14 1.45593e-18 $lvl1=3 $lvl2=2
CA94 CK:15 SI:14 1.44528e-18 $lvl1=2 $lvl2=2
CA95 CK:14 SI:13 1.34936e-18 $lvl1=2 $lvl2=2
CA96 CK SI:14 1.19344e-18 $lvl1=1 $lvl2=2
CA97 CK:15 Mmn13:g 1.1586e-18 $lvl1=2 $lvl2=3
CA98 CK:15 SI:13 1.02532e-18 $lvl1=2 $lvl2=2
CA99 CK:14 SI:14 9.86352e-19 $lvl1=2 $lvl2=2
CA100 CK:14 SI:15 8.93447e-19 $lvl1=2 $lvl2=2
CA101 CK:14 SI:9 7.56046e-19 $lvl1=2 $lvl2=3
CA102 CK SI:9 7.333e-19 $lvl1=1 $lvl2=3
CA103 CK:14 SI:18 6.6279e-19 $lvl1=2 $lvl2=1
CA104 CK:12 SI:14 6.32193e-19 $lvl1=2 $lvl2=2
CA105 CK:12 SI:9 5.65413e-19 $lvl1=2 $lvl2=3
CA106 CK SI:18 4.18647e-17 $lvl1=1 $lvl2=1
CA107 CK SI:13 4.36413e-18 $lvl1=1 $lvl2=2
ReA1 CK:16 CK 0.012019 $metal1  $L=0.025 $W=0.260000 $SI_W=0.26 $TYPE=10 $DIR=1 $LLX=2.170000 $LLY=1.230000 $URX=2.430000 $URY=1.255000 $lvl=1
RfA2 CK:12 CK:13 12.423529 $li  $L=0.165 $W=0.170000 $SI_W=0.17 $TYPE=10 $DIR=0 $LLX=2.625000 $LLY=1.170000 $URX=2.790000 $URY=1.340000 $lvl=2
RfA3 CK:13 CK:14 24.470589 $li  $L=0.325 $W=0.170000 $SI_W=0.17 $TYPE=10 $DIR=0 $LLX=2.300000 $LLY=1.170000 $URX=2.625000 $URY=1.340000 $lvl=2
RfA4 CK:14 CK:15 12.423529 $li  $L=0.165 $W=0.170000 $SI_W=0.17 $TYPE=10 $DIR=0 $LLX=2.135000 $LLY=1.170000 $URX=2.300000 $URY=1.340000 $lvl=2
RgA5 CK:8 Mmp20:g 173.519989 $poly  $L=0.54 $W=0.150000 $SI_W=0.15 $TYPE=10 $DIR=1 $LLX=2.550000 $LLY=3.355000 $URX=2.700000 $URY=3.895000 $lvl=3
RgA6 Mmp20:g CK:9 655.959106 $poly  $L=2.1 $W=0.150000 $SI_W=0.15 $TYPE=10 $DIR=1 $LLX=2.550000 $LLY=1.255000 $URX=2.700000 $URY=3.355000 $lvl=3
RgA7 CK:9 CK:10 34.134449 $poly  $L=0.1645 $W=0.270000 $SI_W=0.27 $TYPE=10 $DIR=1 $LLX=2.490000 $LLY=1.090500 $URX=2.760000 $URY=1.255000 $lvl=3
RgA8 CK:10 Mmn20:g 155.087952 $poly  $L=0.4825 $W=0.150000 $SI_W=0.15 $TYPE=10 $DIR=1 $LLX=2.550000 $LLY=0.607500 $URX=2.700000 $URY=1.090000 $lvl=3
RgA9 Mmn20:g CK:11 116.483322 $poly  $L=0.3625 $W=0.150000 $SI_W=0.15 $TYPE=10 $DIR=1 $LLX=2.550000 $LLY=0.245000 $URX=2.700000 $URY=0.607500 $lvl=3
RjA10 CK:14 CK:16 152.000000 $mcon  $L=0.17 $W=0.17 $A=0.0289 $VC=0 $SAVL=0 $SAVC=0 $SI_A=0.0289 $COVER_DIR=0 $LLX=0.000000 $LLY=0.000000 $URX=0.170000 $URY=0.170000 $lvl=6
RiA11 CK:9 CK:13 15.000000 $licon  $L=0.17 $W=0.17 $A=0.0289 $VC=0 $SAVL=0 $SAVC=0 $SI_A=0.0289 $COVER_DIR=0 $LLX=0.000000 $LLY=0.000000 $URX=0.170000 $URY=0.170000 $lvl=7
*
*|NET QN 3.19395e-15
*|P (QN X 0 12.4350 1.9150) // $llx=12.4350 $lly=1.9150 $urx=12.4350 $ury=1.9150 $lvl=1
*|I (Mmp57@2:d Mmp57@2 d X 0 12.3395 3.0150) // $llx=12.3395 $lly=3.0150 $urx=12.3395 $ury=3.0150 $lvl=4
*|I (Mmp57@3:d Mmp57@3 d X 0 12.0605 3.0150) // $llx=12.0605 $lly=3.0150 $urx=12.0605 $ury=3.0150 $lvl=4
*|I (Mmp57:d Mmp57 d X 0 11.4795 3.0150) // $llx=11.4795 $lly=3.0150 $urx=11.4795 $ury=3.0150 $lvl=4
*|I (Mmp57@1:d Mmp57@1 d X 0 11.2005 3.0150) // $llx=11.2005 $lly=3.0150 $urx=11.2005 $ury=3.0150 $lvl=4
*|I (Mmn57@1:d Mmn57@1 d X 0 11.2005 0.7750) // $llx=11.2005 $lly=0.7750 $urx=11.2005 $ury=0.7750 $lvl=4
*|I (Mmn57:d Mmn57 d X 0 11.4795 0.7750) // $llx=11.4795 $lly=0.7750 $urx=11.4795 $ury=0.7750 $lvl=4
*|I (Mmn57@3:d Mmn57@3 d X 0 12.0605 0.7750) // $llx=12.0605 $lly=0.7750 $urx=12.0605 $ury=0.7750 $lvl=4
*|I (Mmn57@2:d Mmn57@2 d X 0 12.3395 0.7750) // $llx=12.3395 $lly=0.7750 $urx=12.3395 $ury=0.7750 $lvl=4
*|S (QN:1 11.3400 3.7450) // $llx=11.3400 $lly=3.7450 $urx=11.3400 $ury=3.7450 $lvl=2
*|S (QN:3 11.3400 3.0150) // $llx=11.3400 $lly=3.0150 $urx=11.3400 $ury=3.0150 $lvl=2
*|S (QN:4 11.3400 2.7500) // $llx=11.3400 $lly=2.7500 $urx=11.3400 $ury=2.7500 $lvl=2
*|S (QN:5 11.3400 1.1550) // $llx=11.3400 $lly=1.1550 $urx=11.3400 $ury=1.1550 $lvl=2
*|S (QN:6 11.3400 0.8100) // $llx=11.3400 $lly=0.8100 $urx=11.3400 $ury=0.8100 $lvl=2
*|S (QN:8 11.3400 0.7750) // $llx=11.3400 $lly=0.7750 $urx=11.3400 $ury=0.7750 $lvl=2
*|S (QN:9 11.3400 0.3950) // $llx=11.3400 $lly=0.3950 $urx=11.3400 $ury=0.3950 $lvl=2
*|S (QN:10 12.2000 3.7450) // $llx=12.2000 $lly=3.7450 $urx=12.2000 $ury=3.7450 $lvl=2
*|S (QN:12 12.2000 3.0150) // $llx=12.2000 $lly=3.0150 $urx=12.2000 $ury=3.0150 $lvl=2
*|S (QN:13 12.2000 2.7500) // $llx=12.2000 $lly=2.7500 $urx=12.2000 $ury=2.7500 $lvl=2
*|S (QN:14 12.2000 1.1550) // $llx=12.2000 $lly=1.1550 $urx=12.2000 $ury=1.1550 $lvl=2
*|S (QN:15 12.2000 0.8100) // $llx=12.2000 $lly=0.8100 $urx=12.2000 $ury=0.8100 $lvl=2
*|S (QN:17 12.2000 0.7750) // $llx=12.2000 $lly=0.7750 $urx=12.2000 $ury=0.7750 $lvl=2
*|S (QN:18 12.2000 0.3950) // $llx=12.2000 $lly=0.3950 $urx=12.2000 $ury=0.3950 $lvl=2
*|S (QN:19 12.3175 3.2550) // $llx=12.3175 $lly=3.2550 $urx=12.3175 $ury=3.2550 $lvl=1
*|S (QN:20 12.2000 2.7500) // $llx=12.2000 $lly=2.7500 $urx=12.2000 $ury=2.7500 $lvl=1
*|S (QN:21 12.3175 1.6900) // $llx=12.3175 $lly=1.6900 $urx=12.3175 $ury=1.6900 $lvl=1
*|S (QN:22 11.3400 1.6900) // $llx=11.3400 $lly=1.6900 $urx=11.3400 $ury=1.6900 $lvl=1
*|S (QN:23 11.3400 0.8100) // $llx=11.3400 $lly=0.8100 $urx=11.3400 $ury=0.8100 $lvl=1
*|S (QN:24 12.2000 0.8100) // $llx=12.2000 $lly=0.8100 $urx=12.2000 $ury=0.8100 $lvl=1
*|S (QN:25 12.3175 0.4800) // $llx=12.3175 $lly=0.4800 $urx=12.3175 $ury=0.4800 $lvl=1
*|S (QN:26 11.3400 2.7500) // $llx=11.3400 $lly=2.7500 $urx=11.3400 $ury=2.7500 $lvl=1
*|S (QN:27 11.3400 3.2550) // $llx=11.3400 $lly=3.2550 $urx=11.3400 $ury=3.2550 $lvl=1
*|S (QN:28 11.3400 0.4850) // $llx=11.3400 $lly=0.4850 $urx=11.3400 $ury=0.4850 $lvl=1
CD1 Mmn57@3:d VSS! 1.25891e-18 $lvl=4
CD2 Mmn57@1:d VSS! 8.13589e-19 $lvl=4
CD3 Mmp57:d VSS! 2.30548e-19 $lvl=4
CD4 Mmp57@2:d VSS! 2.04072e-18 $lvl=4
CD5 QN:23 VSS! 6.53478e-18 $lvl=1
CD6 QN:20 VSS! 9.11913e-18 $lvl=1
CD7 QN:19 VSS! 3.97179e-18 $lvl=1
CD8 QN:27 VSS! 7.81475e-18 $lvl=1
CD9 QN:28 VSS! 2.60174e-18 $lvl=1
CD10 QN:25 VSS! 9.54124e-18 $lvl=1
CD11 QN:22 VSS! 8.23032e-18 $lvl=1
CD12 QN:17 VSS! 3.34925e-18 $lvl=2
CD13 QN:18 VSS! 7.57158e-19 $lvl=2
CD14 QN:5 VSS! 7.96443e-18 $lvl=2
CD15 QN:9 VSS! 1.01371e-18 $lvl=2
CD16 QN:1 VSS! 4.11436e-18 $lvl=2
CD17 QN:6 VSS! 1.87709e-18 $lvl=2
CD18 QN:4 VSS! 2.58966e-18 $lvl=2
CD19 QN:15 VSS! 1.15666e-18 $lvl=2
CD20 QN:13 VSS! 4.07126e-18 $lvl=2
CD21 QN VSS! 1.17223e-17 $lvl=1
CD22 QN:13 net367:52 8.31385e-18 $lvl1=2 $lvl2=2
CD23 QN:1 net367:32 7.88388e-18 $lvl1=2 $lvl2=3
CD24 QN:13 net367:32 6.91438e-18 $lvl1=2 $lvl2=3
CD25 QN net367:32 5.77772e-18 $lvl1=1 $lvl2=3
CD26 QN:27 net367:52 5.73849e-18 $lvl1=1 $lvl2=2
CD27 QN:5 net367:52 4.98949e-18 $lvl1=2 $lvl2=2
CD28 QN:5 net367:32 4.81926e-18 $lvl1=2 $lvl2=3
CD29 QN:17 net367:52 4.22999e-18 $lvl1=2 $lvl2=2
CD30 QN:17 net367:32 4.15758e-18 $lvl1=2 $lvl2=3
CD31 QN:20 net367:52 3.84177e-18 $lvl1=1 $lvl2=2
CD32 QN:23 net367:52 3.56988e-18 $lvl1=1 $lvl2=2
CD33 QN:22 net367:32 3.46602e-18 $lvl1=1 $lvl2=3
CD34 QN:25 net367:52 3.00201e-18 $lvl1=1 $lvl2=2
CD35 QN:4 net367:52 2.01445e-18 $lvl1=2 $lvl2=2
CD36 QN:25 net367:32 1.52948e-18 $lvl1=1 $lvl2=3
CD37 QN:20 net367:32 1.36025e-18 $lvl1=1 $lvl2=3
CD38 Mmp57:d net367:32 1.32226e-18 $lvl1=4 $lvl2=3
CD39 QN:27 net367:32 8.7865e-19 $lvl1=1 $lvl2=3
CD40 QN:23 net367:32 8.4231e-19 $lvl1=1 $lvl2=3
CD41 QN:18 Mmn57@2:g 7.47876e-19 $lvl1=2 $lvl2=3
CD42 QN:9 net367:38 6.35618e-19 $lvl1=2 $lvl2=3
CD43 QN:13 net367:29 2.61581e-16 $lvl1=2 $lvl2=3
CD44 QN:5 net367 1.30514e-16 $lvl1=2 $lvl2=3
CD45 QN net367:52 3.16574e-17 $lvl1=1 $lvl2=2
CD46 QN:1 net367:40 2.49662e-16 $lvl1=2 $lvl2=3
CD47 QN:1 net367:52 1.0306e-17 $lvl1=2 $lvl2=2
CD48 QN:1 net367:39 2.42609e-16 $lvl1=2 $lvl2=3
CD49 QN:22 net367:52 3.00095e-17 $lvl1=1 $lvl2=2
CD50 QN:5 net367:38 1.24483e-16 $lvl1=2 $lvl2=3
CD51 QN:17 Mmn57@3:g 1.24038e-16 $lvl1=2 $lvl2=3
CD52 QN:13 net367:37 2.48968e-16 $lvl1=2 $lvl2=3
CD53 QN:17 Mmn57@2:g 1.24516e-16 $lvl1=2 $lvl2=3
CD54 QN:23 VSS!:13 9.56939e-18 $lvl1=1 $lvl2=2
CD55 QN:9 VSS!:7 9.22268e-18 $lvl1=2 $lvl2=2
CD56 QN:18 VSS!:5 7.07185e-18 $lvl1=2 $lvl2=2
CD57 QN:9 VSS!:5 6.8223e-18 $lvl1=2 $lvl2=2
CD58 QN:25 VSS!:51 6.74698e-18 $lvl1=1 $lvl2=1
CD59 QN:18 VSS!:4 5.68565e-18 $lvl1=2 $lvl2=2
CD60 QN VSS!:1 5.48492e-18 $lvl1=1 $lvl2=2
CD61 QN:17 VSS!:4 5.08014e-18 $lvl1=2 $lvl2=2
CD62 QN:9 VSS!:13 5.03345e-18 $lvl1=2 $lvl2=2
CD63 QN:15 VSS!:13 4.92386e-18 $lvl1=2 $lvl2=2
CD64 QN:18 VSS!:1 4.69228e-18 $lvl1=2 $lvl2=2
CD65 QN:15 VSS!:1 4.52757e-18 $lvl1=2 $lvl2=2
CD66 QN:18 VSS!:13 4.51976e-18 $lvl1=2 $lvl2=2
CD67 QN:9 VSS!:16 4.45068e-18 $lvl1=2 $lvl2=2
CD68 QN VSS!:52 4.35563e-18 $lvl1=1 $lvl2=1
CD69 QN:6 VSS!:13 4.05251e-18 $lvl1=2 $lvl2=2
CD70 QN:5 VSS!:7 3.92198e-18 $lvl1=2 $lvl2=2
CD71 QN:25 VSS!:7 3.85325e-18 $lvl1=1 $lvl2=2
CD72 QN:5 VSS!:5 3.82065e-18 $lvl1=2 $lvl2=2
CD73 QN:17 VSS!:5 3.65598e-18 $lvl1=2 $lvl2=2
CD74 QN VSS!:13 3.42008e-18 $lvl1=1 $lvl2=2
CD75 QN VSS!:51 3.09575e-18 $lvl1=1 $lvl2=1
CD76 QN:6 VSS!:16 3.0257e-18 $lvl1=2 $lvl2=2
CD77 QN:22 VSS!:52 2.67688e-18 $lvl1=1 $lvl2=1
CD78 QN:20 VSS!:52 2.64122e-18 $lvl1=1 $lvl2=1
CD79 QN:22 VSS!:13 2.5595e-18 $lvl1=1 $lvl2=2
CD80 QN:25 VSS!:4 2.50699e-18 $lvl1=1 $lvl2=2
CD81 QN:6 VSS!:52 2.41234e-18 $lvl1=2 $lvl2=1
CD82 QN:25 VSS!:5 2.27152e-18 $lvl1=1 $lvl2=2
CD83 QN:28 VSS!:7 2.19427e-18 $lvl1=1 $lvl2=2
CD84 QN:25 VSS!:10 2.15136e-18 $lvl1=1 $lvl2=2
CD85 QN:9 VSS!:52 2.10849e-18 $lvl1=2 $lvl2=1
CD86 QN:15 VSS!:52 1.96023e-18 $lvl1=2 $lvl2=1
CD87 QN:6 VSS!:7 1.91753e-18 $lvl1=2 $lvl2=2
CD88 Mmn57@1:d VSS!:5 1.89131e-18 $lvl1=4 $lvl2=2
CD89 QN:22 VSS!:16 1.87553e-18 $lvl1=1 $lvl2=2
CD90 QN:18 VSS!:52 1.84653e-18 $lvl1=2 $lvl2=1
CD91 QN:18 VSS!:7 1.84516e-18 $lvl1=2 $lvl2=2
CD92 Mmn57@1:d VSS!:13 1.66453e-18 $lvl1=4 $lvl2=2
CD93 QN:20 VSS!:1 1.43624e-18 $lvl1=1 $lvl2=2
CD94 QN:15 VSS!:5 1.36495e-18 $lvl1=2 $lvl2=2
CD95 QN:6 VSS!:5 1.32861e-18 $lvl1=2 $lvl2=2
CD96 QN:20 VSS!:51 1.29806e-18 $lvl1=1 $lvl2=1
CD97 QN:23 VSS!:7 1.22212e-18 $lvl1=1 $lvl2=2
CD98 QN:17 VSS!:52 1.18363e-18 $lvl1=2 $lvl2=1
CD99 QN:15 VSS!:4 1.15841e-18 $lvl1=2 $lvl2=2
CD100 Mmn57@3:d VSS!:1 1.05607e-18 $lvl1=4 $lvl2=2
CD101 Mmn57@1:d VSS!:7 1.00846e-18 $lvl1=4 $lvl2=2
CD102 Mmn57@3:d VSS!:4 9.91817e-19 $lvl1=4 $lvl2=2
CD103 Mmn57@3:d VSS!:5 8.66585e-19 $lvl1=4 $lvl2=2
CD104 QN VSS!:10 8.44536e-19 $lvl1=1 $lvl2=2
CD105 QN:5 VSS!:52 8.20111e-19 $lvl1=2 $lvl2=1
CD106 QN:17 VSS!:8 8.18135e-19 $lvl1=2 $lvl2=4
CD107 QN:17 VSS!:7 8.0818e-19 $lvl1=2 $lvl2=2
CD108 QN:28 VSS!:5 7.59335e-19 $lvl1=1 $lvl2=2
CD109 QN:27 VSS!:52 7.32279e-19 $lvl1=1 $lvl2=1
CD110 QN:15 VSS!:7 6.65215e-19 $lvl1=2 $lvl2=2
CD111 Mmn57@1:d VSS!:16 6.33983e-19 $lvl1=4 $lvl2=2
CD112 QN:28 VSS!:52 2.39749e-17 $lvl1=1 $lvl2=1
CD113 QN:17 VSS!:13 5.06982e-17 $lvl1=2 $lvl2=2
CD114 QN:23 VSS!:52 2.19225e-17 $lvl1=1 $lvl2=1
CD115 QN:5 VSS!:16 4.91773e-17 $lvl1=2 $lvl2=2
CD116 QN:23 VSS!:16 1.08385e-17 $lvl1=1 $lvl2=2
CD117 QN:25 VSS!:13 1.09827e-17 $lvl1=1 $lvl2=2
CD118 QN:17 VSS!:1 4.88375e-17 $lvl1=2 $lvl2=2
CD119 QN:5 VSS!:13 4.74637e-17 $lvl1=2 $lvl2=2
CD120 QN:25 VSS!:1 2.19228e-17 $lvl1=1 $lvl2=2
CD121 QN:25 VSS!:52 6.21327e-17 $lvl1=1 $lvl2=1
CD122 QN:13 VDD!:52 9.35061e-18 $lvl1=2 $lvl2=1
CD123 QN:27 VDD! 8.85037e-18 $lvl1=1 $lvl2=1
CD124 QN:4 VDD!:45 8.23946e-18 $lvl1=2 $lvl2=2
CD125 QN:4 VDD!:40 8.18188e-18 $lvl1=2 $lvl2=2
CD126 QN:19 VDD!:49 8.13726e-18 $lvl1=1 $lvl2=2
CD127 QN:23 VDD! 7.80487e-18 $lvl1=1 $lvl2=1
CD128 QN:1 VDD!:52 7.26491e-18 $lvl1=2 $lvl2=1
CD129 QN VDD!:49 6.86578e-18 $lvl1=1 $lvl2=2
CD130 QN:22 VDD! 6.42336e-18 $lvl1=1 $lvl2=1
CD131 QN:19 VDD! 4.46316e-18 $lvl1=1 $lvl2=1
CD132 QN:19 VDD!:45 4.17724e-18 $lvl1=1 $lvl2=2
CD133 QN:20 VDD!:51 3.21091e-18 $lvl1=1 $lvl2=1
CD134 QN:13 VDD! 2.96831e-18 $lvl1=2 $lvl2=1
CD135 QN VDD!:52 2.91135e-18 $lvl1=1 $lvl2=1
CD136 QN:13 VDD!:14 2.6818e-18 $lvl1=2 $lvl2=2
CD137 QN VDD!:45 2.57585e-18 $lvl1=1 $lvl2=2
CD138 QN:19 VDD!:51 1.94568e-18 $lvl1=1 $lvl2=1
CD139 QN:1 VDD! 1.82237e-18 $lvl1=2 $lvl2=1
CD140 QN:25 VDD!:52 1.69049e-18 $lvl1=1 $lvl2=1
CD141 Mmp57:d VDD!:42 1.56729e-18 $lvl1=4 $lvl2=2
CD142 Mmp57@2:d VDD!:46 1.55947e-18 $lvl1=4 $lvl2=2
CD143 QN:22 VDD!:40 1.51987e-18 $lvl1=1 $lvl2=2
CD144 QN:22 VDD!:52 1.51552e-18 $lvl1=1 $lvl2=1
CD145 QN:22 VDD!:45 1.41618e-18 $lvl1=1 $lvl2=2
CD146 QN:23 VDD!:52 1.36559e-18 $lvl1=1 $lvl2=1
CD147 QN:20 VDD!:50 1.3499e-18 $lvl1=1 $lvl2=2
CD148 Mmp57@2:d VDD!:42 1.22503e-18 $lvl1=4 $lvl2=2
CD149 QN:27 VDD!:14 1.20904e-18 $lvl1=1 $lvl2=2
CD150 QN:19 VDD!:46 1.16078e-18 $lvl1=1 $lvl2=2
CD151 QN VDD!:51 1.05523e-18 $lvl1=1 $lvl2=1
CD152 QN:20 VDD!:46 1.04449e-18 $lvl1=1 $lvl2=2
CD153 QN:4 VDD!:52 1.03659e-18 $lvl1=2 $lvl2=1
CD154 QN:25 VDD!:49 9.45487e-19 $lvl1=1 $lvl2=2
CD155 QN:27 VDD!:49 9.39671e-19 $lvl1=1 $lvl2=2
CD156 Mmp57:d VDD!:40 8.99249e-19 $lvl1=4 $lvl2=2
CD157 QN:28 VDD! 7.74294e-19 $lvl1=1 $lvl2=1
CD158 QN:13 VDD!:7 7.58852e-19 $lvl1=2 $lvl2=4
CD159 QN:1 VDD!:7 6.58661e-19 $lvl1=2 $lvl2=4
CD160 QN:19 VDD!:14 6.13573e-19 $lvl1=1 $lvl2=2
CD161 QN:27 VDD!:51 5.76343e-19 $lvl1=1 $lvl2=1
CD162 QN:27 VDD!:37 5.5716e-19 $lvl1=1 $lvl2=2
CD163 Mmp57:d VDD!:14 5.55437e-19 $lvl1=4 $lvl2=2
CD164 Mmp57:d VDD!:45 5.54723e-19 $lvl1=4 $lvl2=2
CD165 QN:19 VDD!:50 5.0069e-19 $lvl1=1 $lvl2=2
CD166 QN:17 VDD! 4.92779e-19 $lvl1=2 $lvl2=1
CD167 QN:19 VDD!:42 4.65376e-19 $lvl1=1 $lvl2=2
CD168 QN:27 VDD!:52 2.39133e-17 $lvl1=1 $lvl2=1
CD169 QN:25 VDD! 2.05637e-17 $lvl1=1 $lvl2=1
CD170 QN:1 VDD!:14 1.32529e-17 $lvl1=2 $lvl2=2
CD171 QN:13 VDD!:46 1.20609e-17 $lvl1=2 $lvl2=2
CD172 QN:13 VDD!:45 1.04229e-16 $lvl1=2 $lvl2=2
CD173 QN:27 VDD!:40 1.38535e-17 $lvl1=1 $lvl2=2
CD174 QN:1 VDD!:40 1.0837e-16 $lvl1=2 $lvl2=2
CD175 QN:19 VDD!:52 1.62301e-17 $lvl1=1 $lvl2=1
CD176 QN:1 VDD!:45 1.00831e-16 $lvl1=2 $lvl2=2
CD177 QN:20 VDD!:45 1.79527e-17 $lvl1=1 $lvl2=2
CD178 QN VDD! 2.1059e-17 $lvl1=1 $lvl2=1
CD179 QN:13 VDD!:42 1.3643e-17 $lvl1=2 $lvl2=2
CD180 QN:20 VDD!:49 3.68087e-17 $lvl1=1 $lvl2=2
CD181 QN:1 VDD!:42 1.27687e-17 $lvl1=2 $lvl2=2
CD182 QN:20 VDD! 2.8689e-17 $lvl1=1 $lvl2=1
CD183 QN:20 VDD!:52 1.33412e-17 $lvl1=1 $lvl2=1
CD184 QN:13 VDD!:49 1.10527e-16 $lvl1=2 $lvl2=2
CD185 QN:27 VDD!:45 1.19845e-17 $lvl1=1 $lvl2=2
ReD56 QN:19 QN:20 0.135753 $metal1  $L=0.505 $W=0.465000 $SI_W=0.465 $TYPE=10 $DIR=1 $LLX=12.085000 $LLY=2.750000 $URX=12.550000 $URY=3.255000 $lvl=1
ReD57 QN:20 QN 0.224462 $metal1  $L=0.835 $W=0.465000 $SI_W=0.465 $TYPE=10 $DIR=1 $LLX=12.085000 $LLY=1.915000 $URX=12.550000 $URY=2.750000 $lvl=1
ReD58 QN QN:21 0.060417 $metal1  $L=0.22475 $W=0.465000 $SI_W=0.465 $TYPE=10 $DIR=1 $LLX=12.202500 $LLY=1.690000 $URX=12.667500 $URY=1.915000 $lvl=1
ReD59 QN:21 QN:22 0.467323 $metal1  $L=0.9775 $W=0.230000 $SI_W=0.23 $TYPE=10 $DIR=0 $LLX=11.340500 $LLY=1.575000 $URX=12.317500 $URY=1.805000 $lvl=1
ReD60 QN:22 QN:23 0.478397 $metal1  $L=0.88025 $W=0.230000 $SI_W=0.23 $TYPE=10 $DIR=1 $LLX=11.225000 $LLY=0.810000 $URX=11.455000 $URY=1.690000 $lvl=1
ReD61 QN:21 QN:24 0.236626 $metal1  $L=0.88025 $W=0.465000 $SI_W=0.465 $TYPE=10 $DIR=1 $LLX=12.085000 $LLY=0.810000 $URX=12.550000 $URY=1.690000 $lvl=1
ReD62 QN:24 QN:25 0.088710 $metal1  $L=0.33 $W=0.465000 $SI_W=0.465 $TYPE=10 $DIR=1 $LLX=12.085000 $LLY=0.480000 $URX=12.550000 $URY=0.810000 $lvl=1
ReD63 QN:22 QN:26 0.575951 $metal1  $L=1.05975 $W=0.230000 $SI_W=0.23 $TYPE=10 $DIR=1 $LLX=11.225000 $LLY=1.690000 $URX=11.455000 $URY=2.750000 $lvl=1
ReD64 QN:26 QN:27 0.274457 $metal1  $L=0.505 $W=0.230000 $SI_W=0.23 $TYPE=10 $DIR=1 $LLX=11.225000 $LLY=2.750000 $URX=11.455000 $URY=3.255000 $lvl=1
ReD65 QN:23 QN:28 0.176630 $metal1  $L=0.325 $W=0.230000 $SI_W=0.23 $TYPE=10 $DIR=1 $LLX=11.225000 $LLY=0.485000 $URX=11.455000 $URY=0.810000 $lvl=1
RfD66 QN:1 QN:3 54.964703 $li  $L=0.73 $W=0.170000 $SI_W=0.17 $TYPE=10 $DIR=1 $LLX=11.255000 $LLY=3.015000 $URX=11.425000 $URY=3.745000 $lvl=2
RfD67 QN:3 QN:4 4.376774 $li  $L=0.265 $W=0.170000 $SI_W=0.775 $TYPE=10 $DIR=1 $LLX=11.255000 $LLY=2.750000 $URX=11.425000 $URY=3.015000 $lvl=2
RfD68 QN:5 QN:6 25.976471 $li  $L=0.345 $W=0.170000 $SI_W=0.17 $TYPE=10 $DIR=1 $LLX=11.255000 $LLY=0.810000 $URX=11.425000 $URY=1.155000 $lvl=2
RfD69 QN:6 QN:8 0.923711 $li  $L=0.035 $W=0.170000 $SI_W=0.485 $TYPE=10 $DIR=1 $LLX=11.255000 $LLY=0.775000 $URX=11.425000 $URY=0.810000 $lvl=2
RfD70 QN:8 QN:9 28.611765 $li  $L=0.38 $W=0.170000 $SI_W=0.17 $TYPE=10 $DIR=1 $LLX=11.255000 $LLY=0.395000 $URX=11.425000 $URY=0.775000 $lvl=2
RfD71 QN:10 QN:12 54.964703 $li  $L=0.73 $W=0.170000 $SI_W=0.17 $TYPE=10 $DIR=1 $LLX=12.115000 $LLY=3.015000 $URX=12.285000 $URY=3.745000 $lvl=2
RfD72 QN:12 QN:13 4.376774 $li  $L=0.265 $W=0.170000 $SI_W=0.775 $TYPE=10 $DIR=1 $LLX=12.115000 $LLY=2.750000 $URX=12.285000 $URY=3.015000 $lvl=2
RfD73 QN:14 QN:15 25.976471 $li  $L=0.345 $W=0.170000 $SI_W=0.17 $TYPE=10 $DIR=1 $LLX=12.115000 $LLY=0.810000 $URX=12.285000 $URY=1.155000 $lvl=2
RfD74 QN:15 QN:17 0.923711 $li  $L=0.035 $W=0.170000 $SI_W=0.485 $TYPE=10 $DIR=1 $LLX=12.115000 $LLY=0.775000 $URX=12.285000 $URY=0.810000 $lvl=2
RfD75 QN:17 QN:18 28.611765 $li  $L=0.38 $W=0.170000 $SI_W=0.17 $TYPE=10 $DIR=1 $LLX=12.115000 $LLY=0.395000 $URX=12.285000 $URY=0.775000 $lvl=2
RhD76 Mmn57@1:d QN:8 7.500000 $licon_diff  $A=0.0578 $VC=0 $SAVL=0 $SAVC=0 $SI_A=0.0578 $COVER_DIR=0 $LLX=0.000000 $LLY=0.000000 $URX=-0.057800 $URY=-2.000000 $lvl=5
RhD77 Mmn57@3:d QN:17 7.500000 $licon_diff  $A=0.0578 $VC=0 $SAVL=0 $SAVC=0 $SI_A=0.0578 $COVER_DIR=0 $LLX=0.000000 $LLY=0.000000 $URX=-0.057800 $URY=-2.000000 $lvl=5
Rh_2_D78 Mmp57:d QN:3 3.750000 $licon_diff  $A=0.1156 $VC=0 $SAVL=0 $SAVC=0 $SI_A=0.1156 $COVER_DIR=0 $LLX=0.000000 $LLY=0.000000 $URX=-0.115600 $URY=-4.000000 $lvl=5
Rh_2_D79 Mmp57@2:d QN:12 3.750000 $licon_diff  $A=0.1156 $VC=0 $SAVL=0 $SAVC=0 $SI_A=0.1156 $COVER_DIR=0 $LLX=0.000000 $LLY=0.000000 $URX=-0.115600 $URY=-4.000000 $lvl=5
RjD80 QN:13 QN:20 50.666668 $mcon  $A=0.0867 $VC=0 $SAVL=0 $SAVC=0 $SI_A=0.0867 $COVER_DIR=0 $LLX=0.000000 $LLY=0.000000 $URX=-0.086700 $URY=-3.000000 $lvl=6
RjD81 QN:6 QN:23 76.000000 $mcon  $A=0.0578 $VC=0 $SAVL=0 $SAVC=0 $SI_A=0.0578 $COVER_DIR=0 $LLX=0.000000 $LLY=0.000000 $URX=-0.057800 $URY=-2.000000 $lvl=6
RjD82 QN:15 QN:24 76.000000 $mcon  $A=0.0578 $VC=0 $SAVL=0 $SAVC=0 $SI_A=0.0578 $COVER_DIR=0 $LLX=0.000000 $LLY=0.000000 $URX=-0.057800 $URY=-2.000000 $lvl=6
RjD83 QN:4 QN:26 50.666668 $mcon  $A=0.0867 $VC=0 $SAVL=0 $SAVC=0 $SI_A=0.0867 $COVER_DIR=0 $LLX=0.000000 $LLY=0.000000 $URX=-0.086700 $URY=-3.000000 $lvl=6
RmwD84 Mmp57@3:d Mmp57@2:d 0.001000 $diff $W=1000000 $SI_W=1000000 $TYPE=1
+ $DIR=0
RmwD85 Mmp57@1:d Mmp57:d 0.001000 $diff $W=1000000 $SI_W=1000000 $TYPE=1 $DIR=0
RmwD86 Mmn57:d Mmn57@1:d 0.001000 $diff $W=1000000 $SI_W=1000000 $TYPE=1 $DIR=0
RmwD87 Mmn57@2:d Mmn57@3:d 0.001000 $diff $W=1000000 $SI_W=1000000 $TYPE=1
+ $DIR=0
*
*|NET D 8.52587e-16
*|P (D X 0 0.9350 2.5500) // $llx=0.9350 $lly=2.5500 $urx=0.9350 $ury=2.5500 $lvl=1
*|I (Mmp11:g Mmp11 g X 0 0.9050 3.3550) // $llx=0.9050 $lly=3.3550 $urx=0.9050 $ury=3.3550 $lvl=3
*|I (Mmn11:g Mmn11 g X 0 0.9050 0.6075) // $llx=0.9050 $lly=0.6075 $urx=0.9050 $ury=0.6075 $lvl=3
*|S (D:8 0.9050 3.8950) // $llx=0.9050 $lly=3.8950 $urx=0.9050 $ury=3.8950 $lvl=3
*|S (D:9 0.9050 2.1150) // $llx=0.9050 $lly=2.1150 $urx=0.9050 $ury=2.1150 $lvl=3
*|S (D:10 0.9050 1.9500) // $llx=0.9050 $lly=1.9500 $urx=0.9050 $ury=1.9500 $lvl=3
*|S (D:11 0.9050 0.2450) // $llx=0.9050 $lly=0.2450 $urx=0.9050 $ury=0.2450 $lvl=3
*|S (D:12 1.2850 2.1150) // $llx=1.2850 $lly=2.1150 $urx=1.2850 $ury=2.1150 $lvl=2
*|S (D:13 0.9200 2.1150) // $llx=0.9200 $lly=2.1150 $urx=0.9200 $ury=2.1150 $lvl=2
*|S (D:14 0.9050 2.1150) // $llx=0.9050 $lly=2.1150 $urx=0.9050 $ury=2.1150 $lvl=2
*|S (D:15 0.9200 3.1950) // $llx=0.9200 $lly=3.1950 $urx=0.9200 $ury=3.1950 $lvl=1
*|S (D:16 0.9200 2.1150) // $llx=0.9200 $lly=2.1150 $urx=0.9200 $ury=2.1150 $lvl=1
*|S (D:17 0.9200 1.9550) // $llx=0.9200 $lly=1.9550 $urx=0.9200 $ury=1.9550 $lvl=1
CB1 Mmn11:g VSS! 2.76122e-18 $lvl=3
CB2 D:16 VSS! 6.82864e-18 $lvl=1
CB3 D:15 VSS! 8.67524e-18 $lvl=1
CB4 D:8 VSS! 1.91273e-18 $lvl=3
CB5 D:14 VSS! 5.05339e-18 $lvl=2
CB6 D:13 VSS! 1.99395e-18 $lvl=2
CB7 D:9 VSS! 1.30154e-17 $lvl=3
CB8 D:8 net384:4 1.11366e-18 $lvl1=3 $lvl2=2
CB9 D:9 net384:4 6.87375e-19 $lvl1=3 $lvl2=2
CB10 D:9 net384 5.00299e-19 $lvl1=3 $lvl2=2
CB11 D:8 net384 6.84034e-17 $lvl1=3 $lvl2=2
CB12 D:15 net384 1.11592e-17 $lvl1=1 $lvl2=2
CB13 D:15 net384:4 6.53148e-18 $lvl1=1 $lvl2=2
CB14 Mmn11:g net449:3 6.39474e-17 $lvl1=3 $lvl2=2
CB15 D:16 Db:21 3.48797e-18 $lvl1=1 $lvl2=1
CB16 D:8 Db 2.33171e-18 $lvl1=3 $lvl2=2
CB17 D:15 Db 2.30334e-18 $lvl1=1 $lvl2=2
CB18 D:15 Db:4 2.16545e-18 $lvl1=1 $lvl2=2
CB19 D:13 Db:23 1.95283e-18 $lvl1=2 $lvl2=1
CB20 D:15 Db:21 9.32909e-19 $lvl1=1 $lvl2=1
CB21 D:16 Db:24 6.35784e-19 $lvl1=1 $lvl2=1
CB22 D:15 Db:23 3.25949e-17 $lvl1=1 $lvl2=1
CB23 D:14 Db:23 4.70494e-18 $lvl1=2 $lvl2=1
CB24 D:15 Db:24 1.43209e-17 $lvl1=1 $lvl2=1
CB25 D:16 Db:23 2.25708e-17 $lvl1=1 $lvl2=1
CB26 D:16 SEb:31 4.06103e-18 $lvl1=1 $lvl2=2
CB27 D:16 SEb:35 3.97309e-18 $lvl1=1 $lvl2=1
CB28 D:15 SEb:14 2.96636e-18 $lvl1=1 $lvl2=2
CB29 Mmn11:g SEb:10 2.6137e-18 $lvl1=3 $lvl2=3
CB30 D:16 SEb:28 2.47281e-18 $lvl1=1 $lvl2=2
CB31 D:15 SEb:17 1.97083e-18 $lvl1=1 $lvl2=2
CB32 D:16 SEb:32 1.78577e-18 $lvl1=1 $lvl2=1
CB33 D:13 SEb:34 1.70133e-18 $lvl1=2 $lvl2=1
CB34 Mmn11:g SEb:24 1.51177e-18 $lvl1=3 $lvl2=2
CB35 D:8 SEb:31 1.35184e-18 $lvl1=3 $lvl2=2
CB36 D:14 SEb:34 1.32875e-18 $lvl1=2 $lvl2=1
CB37 D:15 SEb:30 1.317e-18 $lvl1=1 $lvl2=2
CB38 Mmn11:g SEb:27 1.30434e-18 $lvl1=3 $lvl2=2
CB39 D:14 SEb:13 1.20348e-18 $lvl1=2 $lvl2=3
CB40 D:9 SEb:13 1.1508e-18 $lvl1=3 $lvl2=3
CB41 D:15 SEb:35 1.06769e-18 $lvl1=1 $lvl2=1
CB42 D:15 SEb:18 9.54473e-19 $lvl1=1 $lvl2=2
CB43 D:16 SEb:30 7.28632e-19 $lvl1=1 $lvl2=2
CB44 D:14 SEb:30 6.70931e-19 $lvl1=2 $lvl2=2
CB45 D:9 SEb:10 5.89136e-19 $lvl1=3 $lvl2=3
CB46 D:8 SEb:28 4.91909e-19 $lvl1=3 $lvl2=2
CB47 D:9 SEb:27 4.26212e-19 $lvl1=3 $lvl2=2
CB48 D:9 SEb:24 3.6336e-19 $lvl1=3 $lvl2=2
CB49 D:8 SEb:13 3.53093e-19 $lvl1=3 $lvl2=3
CB50 Mmn11:g SEb:19 3.37391e-19 $lvl1=3 $lvl2=2
CB51 D:13 SEb:30 3.2939e-19 $lvl1=2 $lvl2=2
CB52 D:9 SEb:34 3.25515e-19 $lvl1=3 $lvl2=1
CB53 D:9 SEb:30 3.18259e-19 $lvl1=3 $lvl2=2
CB54 D:13 SEb:35 3.12875e-19 $lvl1=2 $lvl2=1
CB55 D:9 SEb:14 3.03515e-19 $lvl1=3 $lvl2=2
CB56 D:9 SEb:18 2.99399e-19 $lvl1=3 $lvl2=2
CB57 D:15 SEb:37 2.61644e-19 $lvl1=1 $lvl2=1
CB58 D:9 SEb:28 4.74674e-18 $lvl1=3 $lvl2=2
CB59 D:15 SEb:28 5.39441e-18 $lvl1=1 $lvl2=2
CB60 D:15 SEb:31 9.55e-18 $lvl1=1 $lvl2=2
CB61 D:14 SEb:28 2.1905e-17 $lvl1=2 $lvl2=2
CB62 D:15 SEb:34 1.49966e-17 $lvl1=1 $lvl2=1
CB63 D:13 SEb:31 1.06818e-17 $lvl1=2 $lvl2=2
CB64 D:15 SEb:32 1.96152e-17 $lvl1=1 $lvl2=1
CB65 D:13 SEb:28 4.50635e-18 $lvl1=2 $lvl2=2
CB66 D:14 SEb:31 1.61395e-17 $lvl1=2 $lvl2=2
CB67 D:9 SEb:31 1.18363e-17 $lvl1=3 $lvl2=2
CB68 D:16 SEb:34 1.89513e-17 $lvl1=1 $lvl2=1
CB69 Mmn11:g VSS!:25 8.97853e-18 $lvl1=3 $lvl2=2
CB70 Mmn11:g VSS!:50 6.41236e-17 $lvl1=3 $lvl2=2
CB71 D:16 VDD! 4.03219e-18 $lvl1=1 $lvl2=1
CB72 D:15 VDD!:54 2.58197e-18 $lvl1=1 $lvl2=1
CB73 D:14 VDD! 1.51103e-18 $lvl1=2 $lvl2=1
CB74 D:15 VDD!:4 1.26339e-18 $lvl1=1 $lvl2=2
CB75 D:16 VDD!:53 8.66741e-19 $lvl1=1 $lvl2=1
CB76 D:15 VDD!:53 1.34114e-17 $lvl1=1 $lvl2=1
CB77 D:15 VDD!:3 1.50718e-17 $lvl1=1 $lvl2=2
CB78 D:15 VDD! 1.03247e-17 $lvl1=1 $lvl2=1
CB79 D:8 VDD!:3 1.30627e-16 $lvl1=3 $lvl2=2
CB80 D:8 VDD!:4 1.1127e-17 $lvl1=3 $lvl2=2