*
*|DSPF 1.5
*
*|DATE "Wed Jan  8 19:24:58 2025"
*|VENDOR "Cadence Design Systems"
*|PROGRAM "Cadence Quantus Extraction"
*|VERSION "22.1.0-p089 Linux 64 bit - (Thu Jan 19 11:47:08 PST 2023)"
*|DESIGN SDFFSRX1_HS
*|DIVIDER /
*|DELIMITER :
*|DeviceFingerDelim "@"
*|BUSBIT []
*|GLOBAL_TEMPERATURE 25
*|OPERATING_TEMPERATURE 25

** *VIA_COVERAGE_CODES
** *index FF FS FP FU SF SS SP SU PF PS PP PU UF US UP UU X_by_Y
** * "FF" stands for Full landing and Full coverage
** *0 0 0 0 0 0 0 0 0 0 0 0 0 0 0 0 0
** *1 0 0 0 0 0 0 0 0 0 0 0 0 0 0 0 1 1x1
** *2 0 0 0 0 0 0 0 0 0 0 0 0 0 0 1 0 1x1
** *3 0 0 0 0 0 0 0 0 0 0 0 0 0 1 0 0 1x1
** *4 0 0 0 0 0 0 0 0 0 0 0 0 1 0 0 0 1x1
** *5 0 0 0 0 0 0 0 0 0 0 0 1 0 0 0 0 1x1
** *6 0 0 0 0 0 0 0 0 0 0 1 0 0 0 0 0 1x1
** *7 0 0 0 0 0 0 0 0 0 1 0 0 0 0 0 0 1x1
** *8 0 0 0 0 0 0 0 0 1 0 0 0 0 0 0 0 1x1
** *9 0 0 0 0 0 0 0 1 0 0 0 0 0 0 0 0 1x1
** *10 0 0 0 0 0 0 1 0 0 0 0 0 0 0 0 0 1x1
** *11 0 0 0 0 0 1 0 0 0 0 0 0 0 0 0 0 1x1
** *12 0 0 0 0 1 0 0 0 0 0 0 0 0 0 0 0 1x1
** *13 0 0 0 1 0 0 0 0 0 0 0 0 0 0 0 0 1x1
** *14 0 0 1 0 0 0 0 0 0 0 0 0 0 0 0 0 1x1
** *15 0 1 0 0 0 0 0 0 0 0 0 0 0 0 0 0 1x1
** *16 1 0 0 0 0 0 0 0 0 0 0 0 0 0 0 0 1x1

** *RESISTOR_TYPES
** *1 SHORTING_ELEMENT
** *2 PRES_NG
** *3 PRES_PG
** *4 PRES_NF
** *5 PRES_PF
** *6 TCN_NDIFF
** *7 TCN_PDIFF
** *8 TCN_NFIELD
** *9 TCN_PFIELD
** *10 QUALITY_EXTRACTED
** *11 GCNLAND
** *12 TCNLAND
** *13 DUMMY
** *14 RSD
** *15 BRIDGE

** *RESISTOR_CURRENT_DIRECTION
** *0 HORIZONTAL
** *1 VERTICAL
** *2 45 DEGREE

** QRC_TECH_DIR /vols/wfo_devel/projects/reference_SKY130/tech/sky130_release_0.0.4/quantus/extraction/typical 
** HIERARCHICAL_SPLIT_PINS_DELIMITER '%'
** caps2d version: 10
*
.SUBCKT  SDFFSRX1_HS CK D Q QN RN SE SI SN
*
*Net Section
*
*|GROUND_NET VSS!
*
*LAYER_MAP
*0 none
*1 metal1
*2 li
*3 poly
*4 diff
*5 licon_diff
*6 mcon
*7 licon
*8 FOX

*|NET Q 1.60089e-15
*|P (Q X 0 13.3750 2.0600) // $llx=13.3750 $lly=2.0600 $urx=13.3750 $ury=2.0600 $lvl=1
*|I (Mmp55:d Mmp55 d X 0 13.5895 3.0150) // $llx=13.5895 $lly=3.0150 $urx=13.5895 $ury=3.0150 $lvl=4
*|I (Mmn55:d Mmn55 d X 0 13.5895 0.7750) // $llx=13.5895 $lly=0.7750 $urx=13.5895 $ury=0.7750 $lvl=4
*|S (Q:1 13.4500 3.7450) // $llx=13.4500 $lly=3.7450 $urx=13.4500 $ury=3.7450 $lvl=2
*|S (Q:2 13.4500 3.0250) // $llx=13.4500 $lly=3.0250 $urx=13.4500 $ury=3.0250 $lvl=2
*|S (Q:4 13.4500 3.0150) // $llx=13.4500 $lly=3.0150 $urx=13.4500 $ury=3.0150 $lvl=2
*|S (Q:5 13.4500 2.2850) // $llx=13.4500 $lly=2.2850 $urx=13.4500 $ury=2.2850 $lvl=2
*|S (Q:6 13.4500 1.1550) // $llx=13.4500 $lly=1.1550 $urx=13.4500 $ury=1.1550 $lvl=2
*|S (Q:7 13.4500 0.7750) // $llx=13.4500 $lly=0.7750 $urx=13.4500 $ury=0.7750 $lvl=2
*|S (Q:10 13.4500 0.3950) // $llx=13.4500 $lly=0.3950 $urx=13.4500 $ury=0.3950 $lvl=2
*|S (Q:11 13.4500 0.7750) // $llx=13.4500 $lly=0.7750 $urx=13.4500 $ury=0.7750 $lvl=1
*|S (Q:12 13.4025 0.6800) // $llx=13.4025 $lly=0.6800 $urx=13.4025 $ury=0.6800 $lvl=1
*|S (Q:13 13.4500 0.4500) // $llx=13.4500 $lly=0.4500 $urx=13.4500 $ury=0.4500 $lvl=1
*|S (Q:14 13.4500 3.0250) // $llx=13.4500 $lly=3.0250 $urx=13.4500 $ury=3.0250 $lvl=1
*|S (Q:15 13.4025 3.4500) // $llx=13.4025 $lly=3.4500 $urx=13.4025 $ury=3.4500 $lvl=1
*|S (Q:16 13.4500 3.7095) // $llx=13.4500 $lly=3.7095 $urx=13.4500 $ury=3.7095 $lvl=1
CC1 Mmn55:d VSS! 1.63581e-18 $lvl=4
CC2 Mmp55:d VSS! 2.51156e-18 $lvl=4
CC3 Q:14 VSS! 1.18812e-17 $lvl=1
CC4 Q:12 VSS! 3.14814e-18 $lvl=1
CC5 Q:15 VSS! 4.44178e-18 $lvl=1
CC6 Q:16 VSS! 3.138e-18 $lvl=1
CC7 Q:13 VSS! 2.81484e-18 $lvl=1
CC8 Q:6 VSS! 1.04181e-17 $lvl=2
CC9 Q:10 VSS! 9.42184e-19 $lvl=2
CC10 Q:1 VSS! 7.55089e-18 $lvl=2
CC11 Q:5 VSS! 3.83255e-18 $lvl=2
CC12 Q:7 VSS! 3.00317e-18 $lvl=2
CC13 Q:2 VSS! 3.53872e-18 $lvl=2
CC14 Q:12 net573:28 7.5889e-18 $lvl1=1 $lvl2=1
CC15 Q:13 net573:28 6.73731e-18 $lvl1=1 $lvl2=1
CC16 Mmp55:d net573:12 5.80538e-18 $lvl1=4 $lvl2=2
CC17 Q:1 Mmp56:d 5.09514e-18 $lvl1=2 $lvl2=4
CC18 Q:14 net573:23 4.93066e-18 $lvl1=1 $lvl2=2
CC19 Q:5 net573:24 4.77535e-18 $lvl1=2 $lvl2=2
CC20 Q:7 net573:17 4.68098e-18 $lvl1=2 $lvl2=2
CC21 Q:1 net573:26 4.41181e-18 $lvl1=2 $lvl2=1
CC22 Q:1 net573:24 4.17075e-18 $lvl1=2 $lvl2=2
CC23 Q:2 net573:26 3.72045e-18 $lvl1=2 $lvl2=1
CC24 Q:7 net573:16 3.65271e-18 $lvl1=2 $lvl2=2
CC25 Q:7 net573:28 3.53969e-18 $lvl1=2 $lvl2=1
CC26 Q:2 net573:12 3.33292e-18 $lvl1=2 $lvl2=2
CC27 Q:6 Mmn56:d 2.95154e-18 $lvl1=2 $lvl2=4
CC28 Q:6 net573:17 2.87901e-18 $lvl1=2 $lvl2=2
CC29 Q:15 net573:12 2.73737e-18 $lvl1=1 $lvl2=2
CC30 Q:2 net573:15 2.5764e-18 $lvl1=2 $lvl2=2
CC31 Mmn55:d net573:16 2.44922e-18 $lvl1=4 $lvl2=2
CC32 Q:14 net573:15 2.41675e-18 $lvl1=1 $lvl2=2
CC33 Q:5 net573:21 2.41144e-18 $lvl1=2 $lvl2=2
CC34 Q:1 net573:27 2.35119e-18 $lvl1=2 $lvl2=1
CC35 Q:14 net573:12 2.34445e-18 $lvl1=1 $lvl2=2
CC36 Q:16 net573:26 2.2532e-18 $lvl1=1 $lvl2=1
CC37 Q:1 net573:15 2.0521e-18 $lvl1=2 $lvl2=2
CC38 Q:14 net573:17 1.92856e-18 $lvl1=1 $lvl2=2
CC39 Q:2 net573:27 1.72889e-18 $lvl1=2 $lvl2=1
CC40 Q:6 net573:20 1.70126e-18 $lvl1=2 $lvl2=2
CC41 Q:2 net573:24 1.66978e-18 $lvl1=2 $lvl2=2
CC42 Q:6 net573:28 1.66506e-18 $lvl1=2 $lvl2=1
CC43 Q:7 net573:20 1.47735e-18 $lvl1=2 $lvl2=2
CC44 Q:10 net573:16 1.42786e-18 $lvl1=2 $lvl2=2
CC45 Q:1 net573:21 1.32451e-18 $lvl1=2 $lvl2=2
CC46 Q:10 net573:20 1.21421e-18 $lvl1=2 $lvl2=2
CC47 Q:14 net573:16 1.12859e-18 $lvl1=1 $lvl2=2
CC48 Q:5 net573:27 1.11324e-18 $lvl1=2 $lvl2=1
CC49 Q:16 net573:12 1.00441e-18 $lvl1=1 $lvl2=2
CC50 Q:15 net573:15 8.34199e-19 $lvl1=1 $lvl2=2
CC51 Q:2 net573:21 7.73232e-19 $lvl1=2 $lvl2=2
CC52 Q:6 net573:24 7.72987e-19 $lvl1=2 $lvl2=2
CC53 Q:14 net573:9 6.99977e-19 $lvl1=1 $lvl2=3
CC54 Q:1 net573:8 6.5151e-19 $lvl1=2 $lvl2=3
CC55 Q:1 net573:23 6.45428e-19 $lvl1=2 $lvl2=2
CC56 Q:6 net573:27 6.09176e-19 $lvl1=2 $lvl2=1
CC57 Q:10 net573:17 6.08377e-19 $lvl1=2 $lvl2=2
CC58 Mmp55:d net573:24 5.99329e-19 $lvl1=4 $lvl2=2
CC59 Q:5 net573:26 4.91846e-19 $lvl1=2 $lvl2=1
CC60 Q:7 net573:27 4.90447e-19 $lvl1=2 $lvl2=1
CC61 Q:13 net573:17 4.49832e-19 $lvl1=1 $lvl2=2
CC62 Q:14 net573:24 1.73726e-17 $lvl1=1 $lvl2=2
CC63 Q:14 net573:26 8.4101e-17 $lvl1=1 $lvl2=1
CC64 Q:14 net573:28 5.85381e-17 $lvl1=1 $lvl2=1
CC65 Q:1 net573:12 5.32182e-17 $lvl1=2 $lvl2=2
CC66 Q:15 net573:26 1.3589e-17 $lvl1=1 $lvl2=1
CC67 Q:14 net573:21 1.33177e-17 $lvl1=1 $lvl2=2
CC68 Q:14 net573:27 1.31449e-16 $lvl1=1 $lvl2=1
CC69 Q:6 net573:16 2.1658e-17 $lvl1=2 $lvl2=2
CC70 Q:14 qbint:42 3.77652e-18 $lvl1=1 $lvl2=2
CC71 Q:14 qbint:51 3.61558e-18 $lvl1=1 $lvl2=1
CC72 Q:6 qbint:42 3.4572e-18 $lvl1=2 $lvl2=2
CC73 Q:7 qbint:41 3.29864e-18 $lvl1=2 $lvl2=2
CC74 Q:14 qbint:54 3.2905e-18 $lvl1=1 $lvl2=1
CC75 Q:1 qbint:27 2.56022e-18 $lvl1=2 $lvl2=3
CC76 Q:6 qbint:28 2.26141e-18 $lvl1=2 $lvl2=3
CC77 Mmn55:d qbint:33 2.07711e-18 $lvl1=4 $lvl2=3
CC78 Q:6 Mmn56:g 1.3647e-18 $lvl1=2 $lvl2=3
CC79 Q:7 qbint:42 1.3222e-18 $lvl1=2 $lvl2=2
CC80 Q:15 qbint:51 8.71319e-19 $lvl1=1 $lvl2=1
CC81 Q:5 qbint:31 8.26121e-19 $lvl1=2 $lvl2=3
CC82 Q:1 qbint:51 6.74994e-19 $lvl1=2 $lvl2=1
CC83 Q:1 qbint:28 6.53026e-19 $lvl1=2 $lvl2=3
CC84 Q:14 qbint:33 6.40755e-19 $lvl1=1 $lvl2=3
CC85 Q:1 qbint:33 6.36892e-19 $lvl1=2 $lvl2=3
CC86 Mmn55:d qbint:28 6.36125e-19 $lvl1=4 $lvl2=3
CC87 Q:10 qbint:35 4.48474e-19 $lvl1=2 $lvl2=3
CC88 Q:14 qbint:28 4.3564e-19 $lvl1=1 $lvl2=3
CC89 Mmp55:d qbint:33 4.27162e-19 $lvl1=4 $lvl2=3
CC90 Q:16 qbint:51 4.16187e-19 $lvl1=1 $lvl2=1
CC91 Q:14 qbint:31 4.02858e-19 $lvl1=1 $lvl2=3
CC92 Q:6 qbint:33 1.10134e-17 $lvl1=2 $lvl2=3
CC93 Q:6 qbint:35 1.27521e-16 $lvl1=2 $lvl2=3
CC94 Q:1 qbint:31 2.51451e-16 $lvl1=2 $lvl2=3
CC95 Q:14 qbint:41 1.76386e-17 $lvl1=1 $lvl2=2
CC96 Q:6 qbint:41 1.85479e-17 $lvl1=2 $lvl2=2
CC97 Q:14 VSS!:16 7.52211e-18 $lvl1=1 $lvl2=2
CC98 Q:12 VSS!:43 5.00542e-18 $lvl1=1 $lvl2=1
CC99 Q:10 VSS!:16 4.4861e-18 $lvl1=2 $lvl2=2
CC100 Mmn55:d VSS!:5 3.30421e-18 $lvl1=4 $lvl2=2
CC101 Q:7 VSS!:5 2.93513e-18 $lvl1=2 $lvl2=2
CC102 Q:7 VSS!:43 2.60179e-18 $lvl1=2 $lvl2=1
CC103 Q:6 VSS!:6 2.14761e-18 $lvl1=2 $lvl2=2
CC104 Q:10 VSS!:8 2.09337e-18 $lvl1=2 $lvl2=2
CC105 Q:7 VSS!:8 1.87502e-18 $lvl1=2 $lvl2=2
CC106 Q:13 VSS!:8 1.69353e-18 $lvl1=1 $lvl2=2
CC107 Q:13 VSS!:16 1.52352e-18 $lvl1=1 $lvl2=2
CC108 Q:10 VSS!:43 1.50537e-18 $lvl1=2 $lvl2=1
CC109 Q:10 VSS!:6 1.40394e-18 $lvl1=2 $lvl2=2
CC110 Q:6 VSS!:3 1.35545e-18 $lvl1=2 $lvl2=4
CC111 Q:14 VSS!:42 1.29379e-18 $lvl1=1 $lvl2=1
CC112 Q:14 VSS!:41 1.25239e-18 $lvl1=1 $lvl2=1
CC113 Q:12 VSS!:16 1.22248e-18 $lvl1=1 $lvl2=2
CC114 Q:13 VSS!:5 1.15794e-18 $lvl1=1 $lvl2=2
CC115 Q:6 VSS!:19 1.03904e-18 $lvl1=2 $lvl2=2
CC116 Q:13 VSS!:42 9.74803e-19 $lvl1=1 $lvl2=1
CC117 Q:7 VSS!:6 8.43652e-19 $lvl1=2 $lvl2=2
CC118 Q:6 VSS!:8 5.99453e-19 $lvl1=2 $lvl2=2
CC119 Mmn55:d VSS!:6 4.26559e-19 $lvl1=4 $lvl2=2
CC120 Q:6 VSS!:16 3.73901e-17 $lvl1=2 $lvl2=2
CC121 Q:14 VSS!:43 1.03646e-17 $lvl1=1 $lvl2=1
CC122 Q:10 VSS!:5 1.16166e-17 $lvl1=2 $lvl2=2
CC123 Q:13 VSS!:43 3.13345e-17 $lvl1=1 $lvl2=1
CC124 Q:7 VSS!:16 1.54157e-17 $lvl1=2 $lvl2=2
CC125 Q:6 VSS!:5 8.04863e-18 $lvl1=2 $lvl2=2
CC126 Q:14 VDD!:46 7.28994e-18 $lvl1=1 $lvl2=1
CC127 Q:5 VDD!:12 5.57661e-18 $lvl1=2 $lvl2=2
CC128 Q:1 VDD!:6 3.75753e-18 $lvl1=2 $lvl2=2
CC129 Q:1 VDD!:8 3.27075e-18 $lvl1=2 $lvl2=2
CC130 Q:1 VDD!:46 2.96698e-18 $lvl1=2 $lvl2=1
CC131 Q:15 VDD!:12 2.95437e-18 $lvl1=1 $lvl2=2
CC132 Q:15 VDD! 2.87693e-18 $lvl1=1 $lvl2=1
CC133 Q:1 VDD!:15 2.20851e-18 $lvl1=2 $lvl2=2
CC134 Mmp55:d VDD!:5 2.17805e-18 $lvl1=4 $lvl2=2
CC135 Q:2 VDD!:46 2.17314e-18 $lvl1=2 $lvl2=1
CC136 Q:16 VDD! 1.96284e-18 $lvl1=1 $lvl2=1
CC137 Mmp55:d VDD!:12 1.77791e-18 $lvl1=4 $lvl2=2
CC138 Q:16 VDD!:8 1.74262e-18 $lvl1=1 $lvl2=2
CC139 Q:13 VDD! 1.69281e-18 $lvl1=1 $lvl2=1
CC140 Q:1 VDD!:3 1.62968e-18 $lvl1=2 $lvl2=4
CC141 Q:16 VDD!:12 1.54429e-18 $lvl1=1 $lvl2=2
CC142 Q:2 VDD!:5 1.28898e-18 $lvl1=2 $lvl2=2
CC143 Q:14 VDD!:45 1.09748e-18 $lvl1=1 $lvl2=1
CC144 Q:2 VDD!:8 1.03742e-18 $lvl1=2 $lvl2=2
CC145 Q:14 VDD!:44 1.00882e-18 $lvl1=1 $lvl2=1
CC146 Q:16 VDD!:5 8.90318e-19 $lvl1=1 $lvl2=2
CC147 Q:15 VDD!:45 8.90172e-19 $lvl1=1 $lvl2=1
CC148 Q:5 VDD! 8.68322e-19 $lvl1=2 $lvl2=1
CC149 Q:12 VDD! 8.60777e-19 $lvl1=1 $lvl2=1
CC150 Q:16 VDD!:45 6.79675e-19 $lvl1=1 $lvl2=1
CC151 Q:14 VDD!:15 6.01109e-19 $lvl1=1 $lvl2=2
CC152 Q:15 VDD!:15 5.36334e-19 $lvl1=1 $lvl2=2
CC153 Q:1 Mmp55:s 4.5677e-19 $lvl1=2 $lvl2=4
CC154 Q:1 VDD! 1.35337e-17 $lvl1=2 $lvl2=1
CC155 Q:2 VDD!:12 1.00173e-17 $lvl1=2 $lvl2=2
CC156 Q:15 VDD!:46 1.31754e-17 $lvl1=1 $lvl2=1
CC157 Q:1 VDD!:12 1.00098e-16 $lvl1=2 $lvl2=2
CC158 Q:1 VDD!:5 2.20278e-17 $lvl1=2 $lvl2=2
CC159 Q:14 VDD! 2.15307e-17 $lvl1=1 $lvl2=1
CC160 Q:14 VDD!:12 1.4738e-17 $lvl1=1 $lvl2=2
CC161 Q:16 VDD!:46 3.77106e-17 $lvl1=1 $lvl2=1
CC162 Q:14 QN:15 3.80474e-18 $lvl1=1 $lvl2=1
CC163 Q:15 QN 3.69619e-18 $lvl1=1 $lvl2=1
CC164 Q:15 QN:15 3.65544e-18 $lvl1=1 $lvl2=1
CC165 Q:2 QN 2.16133e-18 $lvl1=2 $lvl2=1
CC166 Q:12 QN 2.12657e-18 $lvl1=1 $lvl2=1
CC167 Q:14 QN:13 1.80401e-18 $lvl1=1 $lvl2=1
CC168 Q:13 QN 1.77951e-18 $lvl1=1 $lvl2=1
CC169 Q:14 QN:2 1.76382e-18 $lvl1=1 $lvl2=2
CC170 Q:7 QN 1.54818e-18 $lvl1=2 $lvl2=1
CC171 Q:14 QN:12 1.47991e-18 $lvl1=1 $lvl2=1
CC172 Q:16 QN:15 1.43956e-18 $lvl1=1 $lvl2=1
CC173 Q:1 QN 1.28007e-18 $lvl1=2 $lvl2=1
CC174 Q:15 QN:16 1.19115e-18 $lvl1=1 $lvl2=1
CC175 Q:16 QN 1.11038e-18 $lvl1=1 $lvl2=1
CC176 Q:14 QN:1 1.1079e-18 $lvl1=1 $lvl2=2
CC177 Q:14 QN:6 1.0933e-18 $lvl1=1 $lvl2=2
CC178 Q:13 QN:13 7.88362e-19 $lvl1=1 $lvl2=1
CC179 Q:16 QN:16 7.79468e-19 $lvl1=1 $lvl2=1
CC180 Q:14 QN:16 7.79009e-19 $lvl1=1 $lvl2=1
CC181 Q:14 QN:7 7.30572e-19 $lvl1=1 $lvl2=2
CC182 Q:6 QN 6.5346e-19 $lvl1=2 $lvl2=1
CC183 Q:2 QN:2 6.36455e-19 $lvl1=2 $lvl2=2
CC184 Q:13 QN:12 5.97703e-19 $lvl1=1 $lvl2=1
CC185 Q:5 QN 5.85923e-19 $lvl1=2 $lvl2=1
CC186 Q:12 QN:13 5.22207e-19 $lvl1=1 $lvl2=1
CC187 Q:12 QN:12 4.60298e-19 $lvl1=1 $lvl2=1
CC188 Q:6 QN:6 4.27426e-19 $lvl1=2 $lvl2=2
CC189 Q:14 QN:5 3.98575e-19 $lvl1=1 $lvl2=2
CC190 Q:14 QN 8.41605e-17 $lvl1=1 $lvl2=1
ReC25 Q:11 Q:12 0.034420 $metal1  $L=0.095 $W=0.345000 $SI_W=0.345 $TYPE=10 $DIR=1 $LLX=13.230000 $LLY=0.680000 $URX=13.575000 $URY=0.775000 $lvl=1
ReC26 Q:12 Q:13 0.125000 $metal1  $L=0.23 $W=0.230000 $SI_W=0.23 $TYPE=10 $DIR=1 $LLX=13.335000 $LLY=0.450000 $URX=13.565000 $URY=0.680000 $lvl=1
ReC27 Q:11 Q 0.465580 $metal1  $L=1.285 $W=0.345000 $SI_W=0.345 $TYPE=10 $DIR=1 $LLX=13.230000 $LLY=0.775000 $URX=13.575000 $URY=2.060000 $lvl=1
ReC28 Q Q:14 0.349638 $metal1  $L=0.965 $W=0.345000 $SI_W=0.345 $TYPE=10 $DIR=1 $LLX=13.202500 $LLY=2.060000 $URX=13.547500 $URY=3.025000 $lvl=1
ReC29 Q:14 Q:15 0.153986 $metal1  $L=0.425 $W=0.345000 $SI_W=0.345 $TYPE=10 $DIR=1 $LLX=13.230000 $LLY=3.025000 $URX=13.575000 $URY=3.450000 $lvl=1
ReC30 Q:15 Q:16 0.141033 $metal1  $L=0.2595 $W=0.230000 $SI_W=0.23 $TYPE=10 $DIR=1 $LLX=13.335000 $LLY=3.449500 $URX=13.565000 $URY=3.709000 $lvl=1
RfC31 Q:1 Q:2 54.211761 $li  $L=0.72 $W=0.170000 $SI_W=0.17 $TYPE=10 $DIR=1 $LLX=13.365000 $LLY=3.025000 $URX=13.535000 $URY=3.745000 $lvl=2
RfC32 Q:2 Q:4 0.107563 $li  $L=0.01 $W=0.170000 $SI_W=1.19 $TYPE=10 $DIR=1 $LLX=13.365000 $LLY=3.015000 $URX=13.535000 $URY=3.025000 $lvl=2
RfC33 Q:4 Q:5 54.964710 $li  $L=0.73 $W=0.170000 $SI_W=0.17 $TYPE=10 $DIR=1 $LLX=13.365000 $LLY=2.285000 $URX=13.535000 $URY=3.015000 $lvl=2
RfC34 Q:6 Q:7 28.611765 $li  $L=0.38 $W=0.170000 $SI_W=0.17 $TYPE=10 $DIR=1 $LLX=13.365000 $LLY=0.775000 $URX=13.535000 $URY=1.155000 $lvl=2
RfC35 Q:7 Q:10 28.611765 $li  $L=0.38 $W=0.170000 $SI_W=0.17 $TYPE=10 $DIR=1 $LLX=13.365000 $LLY=0.395000 $URX=13.535000 $URY=0.775000 $lvl=2
RhC36 Mmn55:d Q:7 7.500000 $licon_diff  $A=0.0578 $VC=0 $SAVL=0 $SAVC=0 $SI_A=0.0578 $COVER_DIR=0 $LLX=0.000000 $LLY=0.000000 $URX=-0.057800 $URY=-2.000000 $lvl=5
Rh_2_C37 Mmp55:d Q:4 3.750000 $licon_diff  $A=0.1156 $VC=0 $SAVL=0 $SAVC=0 $SI_A=0.1156 $COVER_DIR=0 $LLX=0.000000 $LLY=0.000000 $URX=-0.115600 $URY=-4.000000 $lvl=5
RjC38 Q:7 Q:11 76.000000 $mcon  $A=0.0578 $VC=0 $SAVL=0 $SAVC=0 $SI_A=0.0578 $COVER_DIR=0 $LLX=0.000000 $LLY=0.000000 $URX=-0.057800 $URY=-2.000000 $lvl=6
RjC39 Q:2 Q:14 38.000000 $mcon  $A=0.1156 $VC=0 $SAVL=0 $SAVC=0 $SI_A=0.1156 $COVER_DIR=0 $LLX=0.000000 $LLY=0.000000 $URX=-0.115600 $URY=-4.000000 $lvl=6
*
*|NET CKb 4.04905e-15
*|I (Mmp36:g Mmp36 g X 0 8.0550 3.3550) // $llx=8.0550 $lly=3.3550 $urx=8.0550 $ury=3.3550 $lvl=3
*|I (Mmp40:g Mmp40 g X 0 9.0950 3.3550) // $llx=9.0950 $lly=3.3550 $urx=9.0950 $ury=3.3550 $lvl=3
*|I (Mmp21:g Mmp21 g X 0 3.5750 3.3550) // $llx=3.5750 $lly=3.3550 $urx=3.5750 $ury=3.3550 $lvl=3
*|I (Mmp20:d Mmp20 d X 0 2.7005 3.3550) // $llx=2.7005 $lly=3.3550 $urx=2.7005 $ury=3.3550 $lvl=4
*|I (Mmn53:g Mmn53 g X 0 9.5250 0.6075) // $llx=9.5250 $lly=0.6075 $urx=9.5250 $ury=0.6075 $lvl=3
*|I (Mmn25:g Mmn25 g X 0 4.9550 0.6075) // $llx=4.9550 $lly=0.6075 $urx=4.9550 $ury=0.6075 $lvl=3
*|I (Mmn21:g Mmn21 g X 0 3.5750 0.6075) // $llx=3.5750 $lly=0.6075 $urx=3.5750 $ury=0.6075 $lvl=3
*|I (Mmn20:d Mmn20 d X 0 2.7005 0.6075) // $llx=2.7005 $lly=0.6075 $urx=2.7005 $ury=0.6075 $lvl=4
*|S (CKb 3.5750 0.6075) // $llx=3.5750 $lly=0.6075 $urx=3.5750 $ury=0.6075 $lvl=3
*|S (CKb:22 3.5750 3.8950) // $llx=3.5750 $lly=3.8950 $urx=3.5750 $ury=3.8950 $lvl=3
*|S (CKb:23 3.5150 1.7945) // $llx=3.5150 $lly=1.7945 $urx=3.5150 $ury=1.7945 $lvl=3
*|S (CKb:24 3.5150 1.6300) // $llx=3.5150 $lly=1.6300 $urx=3.5150 $ury=1.6300 $lvl=3
*|S (CKb:25 3.5150 1.4650) // $llx=3.5150 $lly=1.4650 $urx=3.5150 $ury=1.4650 $lvl=3
*|S (CKb:26 3.5750 0.2450) // $llx=3.5750 $lly=0.2450 $urx=3.5750 $ury=0.2450 $lvl=3
*|S (CKb:27 4.9550 0.2450) // $llx=4.9550 $lly=0.2450 $urx=4.9550 $ury=0.2450 $lvl=3
*|S (CKb:28 4.9550 1.4650) // $llx=4.9550 $lly=1.4650 $urx=4.9550 $ury=1.4650 $lvl=3
*|S (CKb:29 4.9550 1.6300) // $llx=4.9550 $lly=1.6300 $urx=4.9550 $ury=1.6300 $lvl=3
*|S (CKb:30 9.0950 3.8950) // $llx=9.0950 $lly=3.8950 $urx=9.0950 $ury=3.8950 $lvl=3
*|S (CKb:31 9.0950 2.7750) // $llx=9.0950 $lly=2.7750 $urx=9.0950 $ury=2.7750 $lvl=3
*|S (CKb:32 8.0550 2.7750) // $llx=8.0550 $lly=2.7750 $urx=8.0550 $ury=2.7750 $lvl=3
*|S (CKb:33 9.0350 2.6995) // $llx=9.0350 $lly=2.6995 $urx=9.0350 $ury=2.6995 $lvl=3
*|S (CKb:34 9.0350 1.6300) // $llx=9.0350 $lly=1.6300 $urx=9.0350 $ury=1.6300 $lvl=3
*|S (CKb:35 9.0350 1.4650) // $llx=9.0350 $lly=1.4650 $urx=9.0350 $ury=1.4650 $lvl=3
*|S (CKb:36 8.0550 3.8950) // $llx=8.0550 $lly=3.8950 $urx=8.0550 $ury=3.8950 $lvl=3
*|S (CKb:37 9.5250 0.2450) // $llx=9.5250 $lly=0.2450 $urx=9.5250 $ury=0.2450 $lvl=3
*|S (CKb:38 9.5250 1.3150) // $llx=9.5250 $lly=1.3150 $urx=9.5250 $ury=1.3150 $lvl=3
*|S (CKb:39 9.5250 1.4800) // $llx=9.5250 $lly=1.4800 $urx=9.5250 $ury=1.4800 $lvl=3
*|S (CKb:40 2.8400 3.7450) // $llx=2.8400 $lly=3.7450 $urx=2.8400 $ury=3.7450 $lvl=2
*|S (CKb:42 2.8400 3.3550) // $llx=2.8400 $lly=3.3550 $urx=2.8400 $ury=3.3550 $lvl=2
*|S (CKb:43 2.8400 3.1300) // $llx=2.8400 $lly=3.1300 $urx=2.8400 $ury=3.1300 $lvl=2
*|S (CKb:44 2.8400 0.8200) // $llx=2.8400 $lly=0.8200 $urx=2.8400 $ury=0.8200 $lvl=2
*|S (CKb:45 2.8400 0.6550) // $llx=2.8400 $lly=0.6550 $urx=2.8400 $ury=0.6550 $lvl=2
*|S (CKb:47 2.8400 0.6050) // $llx=2.8400 $lly=0.6050 $urx=2.8400 $ury=0.6050 $lvl=2
*|S (CKb:48 2.8400 0.3950) // $llx=2.8400 $lly=0.3950 $urx=2.8400 $ury=0.3950 $lvl=2
*|S (CKb:49 2.6350 1.6300) // $llx=2.6350 $lly=1.6300 $urx=2.6350 $ury=1.6300 $lvl=2
*|S (CKb:50 2.8000 1.6300) // $llx=2.8000 $lly=1.6300 $urx=2.8000 $ury=1.6300 $lvl=2
*|S (CKb:51 3.5150 1.6300) // $llx=3.5150 $lly=1.6300 $urx=3.5150 $ury=1.6300 $lvl=2
*|S (CKb:52 4.9550 1.6300) // $llx=4.9550 $lly=1.6300 $urx=4.9550 $ury=1.6300 $lvl=2
*|S (CKb:53 9.0350 1.6300) // $llx=9.0350 $lly=1.6300 $urx=9.0350 $ury=1.6300 $lvl=2
*|S (CKb:54 9.4400 1.6300) // $llx=9.4400 $lly=1.6300 $urx=9.4400 $ury=1.6300 $lvl=2
*|S (CKb:55 9.5250 1.4800) // $llx=9.5250 $lly=1.4800 $urx=9.5250 $ury=1.4800 $lvl=2
*|S (CKb:56 2.7625 3.2350) // $llx=2.7625 $lly=3.2350 $urx=2.7625 $ury=3.2350 $lvl=1
*|S (CKb:57 2.8400 3.1300) // $llx=2.8400 $lly=3.1300 $urx=2.8400 $ury=3.1300 $lvl=1
*|S (CKb:58 2.7625 2.9850) // $llx=2.7625 $lly=2.9850 $urx=2.7625 $ury=2.9850 $lvl=1
*|S (CKb:59 2.7425 1.7750) // $llx=2.7425 $lly=1.7750 $urx=2.7425 $ury=1.7750 $lvl=1
*|S (CKb:60 2.8000 1.6300) // $llx=2.8000 $lly=1.6300 $urx=2.8000 $ury=1.6300 $lvl=1
*|S (CKb:61 2.7425 1.4850) // $llx=2.7425 $lly=1.4850 $urx=2.7425 $ury=1.4850 $lvl=1
*|S (CKb:62 2.8400 3.2750) // $llx=2.8400 $lly=3.2750 $urx=2.8400 $ury=3.2750 $lvl=1
*|S (CKb:63 2.7625 0.8000) // $llx=2.7625 $lly=0.8000 $urx=2.7625 $ury=0.8000 $lvl=1
*|S (CKb:64 2.8400 0.6550) // $llx=2.8400 $lly=0.6550 $urx=2.8400 $ury=0.6550 $lvl=1
CM1 Mmn20:d VSS! 2.69936e-18 $lvl=4
CM2 Mmp20:d VSS! 2.15503e-18 $lvl=4
CM3 Mmp36:g VSS! 3.69677e-18 $lvl=3
CM4 CKb:64 VSS! 5.84952e-18 $lvl=1
CM5 CKb:60 VSS! 7.24934e-18 $lvl=1
CM6 CKb:57 VSS! 5.04732e-18 $lvl=1
CM7 CKb:58 VSS! 8.63108e-18 $lvl=1
CM8 CKb:56 VSS! 4.87624e-18 $lvl=1
CM9 CKb:59 VSS! 9.11624e-18 $lvl=1
CM10 CKb:63 VSS! 6.41158e-18 $lvl=1
CM11 CKb:62 VSS! 6.37006e-18 $lvl=1
CM12 CKb:37 VSS! 5.38459e-18 $lvl=3
CM13 CKb:30 VSS! 2.19228e-18 $lvl=3
CM14 CKb:27 VSS! 3.68808e-18 $lvl=3
CM15 CKb:22 VSS! 2.73154e-18 $lvl=3
CM16 CKb:26 VSS! 1.87791e-18 $lvl=3
CM17 CKb:54 VSS! 1.38846e-17 $lvl=2
CM18 CKb:53 VSS! 3.12318e-17 $lvl=2
CM19 CKb:52 VSS! 3.66294e-17 $lvl=2
CM20 CKb:51 VSS! 1.06649e-17 $lvl=2
CM21 CKb:49 VSS! 7.7218e-18 $lvl=2
CM22 CKb:44 VSS! 7.37102e-18 $lvl=2
CM23 CKb:48 VSS! 9.96421e-19 $lvl=2
CM24 CKb:40 VSS! 4.47214e-18 $lvl=2
CM25 CKb:50 VSS! 1.99724e-18 $lvl=2
CM26 CKb:45 VSS! 2.03207e-18 $lvl=2
CM27 CKb:43 VSS! 3.8493e-18 $lvl=2
CM28 CKb:24 VSS! 2.38305e-17 $lvl=3
CM29 CKb:29 VSS! 3.03365e-17 $lvl=3
CM30 CKb:34 VSS! 2.60174e-17 $lvl=3
CM31 CKb:39 VSS! 3.09756e-17 $lvl=3
CM32 CKb:54 n10 2.24503e-18 $lvl1=2 $lvl2=2
CM33 CKb:39 n10 1.82844e-18 $lvl1=3 $lvl2=2
CM34 CKb:37 n10 6.7136e-17 $lvl1=3 $lvl2=2
CM35 Mmp36:g n7 1.3813e-18 $lvl1=3 $lvl2=2
CM36 Mmp36:g n7:3 6.74496e-17 $lvl1=3 $lvl2=2
CM37 CKb:54 qbint:50 1.10399e-17 $lvl1=2 $lvl2=2
CM38 CKb:39 qbint:23 1.08468e-17 $lvl1=3 $lvl2=3
CM39 CKb:53 n35:23 9.29742e-18 $lvl1=2 $lvl2=2
CM40 CKb:53 n35:24 9.24561e-18 $lvl1=2 $lvl2=2
CM41 CKb:53 n35:27 6.09092e-18 $lvl1=2 $lvl2=1
CM42 CKb:54 n35:29 5.11487e-18 $lvl1=2 $lvl2=1
CM43 CKb:39 n35:23 5.04983e-18 $lvl1=3 $lvl2=2
CM44 CKb:34 n35:24 3.93513e-18 $lvl1=3 $lvl2=2
CM45 CKb:34 n35:23 3.48442e-18 $lvl1=3 $lvl2=2
CM46 CKb:54 n35:17 3.07423e-18 $lvl1=2 $lvl2=2
CM47 CKb:37 n35:17 6.46363e-17 $lvl1=3 $lvl2=2
CM48 CKb:54 n35:23 3.00014e-17 $lvl1=2 $lvl2=2
CM49 CKb:30 n35:12 1.28358e-16 $lvl1=3 $lvl2=2
CM50 CKb:54 n35:27 1.17222e-17 $lvl1=2 $lvl2=1
CM51 CKb:34 mout:30 9.45815e-18 $lvl1=3 $lvl2=2
CM52 CKb:53 mout:41 5.26794e-18 $lvl1=2 $lvl2=1
CM53 CKb:52 mout:33 4.27312e-18 $lvl1=2 $lvl2=2
CM54 CKb:54 mout:30 3.26725e-18 $lvl1=2 $lvl2=2
CM55 CKb:52 mout:32 2.51384e-18 $lvl1=2 $lvl2=2
CM56 CKb:39 mout:30 1.80239e-18 $lvl1=3 $lvl2=2
CM57 CKb:34 mout:25 1.18483e-18 $lvl1=3 $lvl2=2
CM58 CKb:54 mout:44 1.01703e-18 $lvl1=2 $lvl2=1
CM59 CKb:53 mout:44 1.50344e-17 $lvl1=2 $lvl2=1
CM60 CKb:30 mout:21 1.3145e-16 $lvl1=3 $lvl2=2
CM61 CKb:52 mout:34 4.87971e-17 $lvl1=2 $lvl2=2
CM62 CKb:53 mout:13 1.56834e-17 $lvl1=2 $lvl2=3
CM63 CKb:52 mout:41 2.30962e-17 $lvl1=2 $lvl2=1
CM64 CKb:53 mout:31 1.26775e-17 $lvl1=2 $lvl2=2
CM65 CKb:53 mout:34 1.09206e-17 $lvl1=2 $lvl2=2
CM66 CKb:53 mout:30 4.76383e-17 $lvl1=2 $lvl2=2
CM67 CKb:53 mout:32 7.81697e-17 $lvl1=2 $lvl2=2
CM68 CKb:29 n20:36 8.71424e-18 $lvl1=3 $lvl2=2
CM69 CKb:53 n20:43 4.01921e-18 $lvl1=2 $lvl2=1
CM70 CKb:53 n20:10 2.32043e-18 $lvl1=2 $lvl2=3
CM71 CKb:52 n20:18 1.84025e-18 $lvl1=2 $lvl2=2
CM72 CKb:52 n20:34 7.18306e-17 $lvl1=2 $lvl2=2
CM73 CKb:53 n20:45 2.10937e-17 $lvl1=2 $lvl2=1
CM74 CKb:27 n20:18 6.57249e-17 $lvl1=3 $lvl2=2
CM75 CKb:52 n20:35 1.33358e-17 $lvl1=2 $lvl2=2
CM76 CKb:52 n20:10 1.2148e-17 $lvl1=2 $lvl2=3
CM77 CKb:53 n20:33 1.27696e-17 $lvl1=2 $lvl2=2
CM78 CKb:53 n20:32 6.98858e-17 $lvl1=2 $lvl2=2
CM79 CKb:53 n20:34 3.78133e-17 $lvl1=2 $lvl2=2
CM80 Mmp36:g n20:23 1.32681e-16 $lvl1=3 $lvl2=2
CM81 CKb:52 n20:36 6.4665e-17 $lvl1=2 $lvl2=2
CM82 CKb:52 n20:40 1.11594e-17 $lvl1=2 $lvl2=1
CM83 CKb:51 RNb:45 6.01394e-18 $lvl1=2 $lvl2=1
CM84 CKb:52 RNb:43 5.7766e-18 $lvl1=2 $lvl2=1
CM85 CKb:51 RNb:43 5.24272e-18 $lvl1=2 $lvl2=1
CM86 CKb:52 RNb:45 4.50195e-18 $lvl1=2 $lvl2=1
CM87 Mmp36:g RNb:38 3.97172e-18 $lvl1=3 $lvl2=2
CM88 CKb:30 RNb:36 3.0205e-18 $lvl1=3 $lvl2=2
CM89 CKb:53 RNb:38 1.55806e-18 $lvl1=2 $lvl2=2
CM90 CKb:22 RNb:27 9.47242e-19 $lvl1=3 $lvl2=2
CM91 CKb:27 RNb:31 9.28228e-19 $lvl1=3 $lvl2=2
CM92 CKb:52 RNb:38 8.94887e-19 $lvl1=2 $lvl2=2
CM93 CKb:26 RNb:31 7.89088e-19 $lvl1=3 $lvl2=2
CM94 CKb:30 RNb:38 7.62122e-19 $lvl1=3 $lvl2=2
CM95 CKb:51 CKbb:45 8.06685e-18 $lvl1=2 $lvl2=1
CM96 CKb:53 CKbb:38 7.76609e-18 $lvl1=2 $lvl2=2
CM97 Mmp20:d CKbb:27 6.90856e-18 $lvl1=4 $lvl2=2
CM98 CKb:57 CKbb:44 5.7165e-18 $lvl1=1 $lvl2=1
CM99 CKb:64 CKbb:47 5.49171e-18 $lvl1=1 $lvl2=1
CM100 CKb:29 CKbb:17 4.94719e-18 $lvl1=3 $lvl2=3
CM101 CKb:63 CKbb:48 4.8389e-18 $lvl1=1 $lvl2=1
CM102 CKb:49 CKbb:45 4.74901e-18 $lvl1=2 $lvl2=1
CM103 CKb:58 CKbb:43 3.99758e-18 $lvl1=1 $lvl2=1
CM104 CKb:50 CKbb:45 3.72502e-18 $lvl1=2 $lvl2=1
CM105 CKb:62 CKbb:43 3.28671e-18 $lvl1=1 $lvl2=1
CM106 CKb:62 CKbb:42 3.27952e-18 $lvl1=1 $lvl2=1
CM107 CKb:53 CKbb:19 3.12125e-18 $lvl1=2 $lvl2=3
CM108 CKb:24 CKbb:41 3.05024e-18 $lvl1=3 $lvl2=2
CM109 CKb:40 CKbb:41 2.93541e-18 $lvl1=2 $lvl2=2
CM110 CKb:53 CKbb:36 2.90462e-18 $lvl1=2 $lvl2=2
CM111 CKb:45 CKbb:47 2.8572e-18 $lvl1=2 $lvl2=1
CM112 CKb:44 CKbb:32 2.84532e-18 $lvl1=2 $lvl2=2
CM113 CKb:40 Mmp21:d 2.84509e-18 $lvl1=2 $lvl2=4
CM114 CKb:45 CKbb:32 2.78725e-18 $lvl1=2 $lvl2=2
CM115 CKb:29 CKbb:39 2.67661e-18 $lvl1=3 $lvl2=2
CM116 CKb:51 CKbb:41 2.5959e-18 $lvl1=2 $lvl2=2
CM117 CKb:52 CKbb:17 2.46559e-18 $lvl1=2 $lvl2=3
CM118 CKb:49 CKbb:41 2.40493e-18 $lvl1=2 $lvl2=2
CM119 CKb:59 CKbb:40 2.27227e-18 $lvl1=1 $lvl2=2
CM120 CKb:57 CKbb:42 2.26502e-18 $lvl1=1 $lvl2=1
CM121 CKb:62 CKbb:46 2.26316e-18 $lvl1=1 $lvl2=1
CM122 CKb:51 CKbb:47 2.23049e-18 $lvl1=2 $lvl2=1
CM123 CKb:34 CKbb:36 2.15139e-18 $lvl1=3 $lvl2=2
CM124 CKb:44 Mmn21:d 2.11947e-18 $lvl1=2 $lvl2=4
CM125 Mmn20:d CKbb:31 2.07841e-18 $lvl1=4 $lvl2=2
CM126 CKb:44 CKbb:47 2.05459e-18 $lvl1=2 $lvl2=1
CM127 CKb:39 CKbb:26 2.0233e-18 $lvl1=3 $lvl2=3
CM128 CKb:45 CKbb:48 2.02177e-18 $lvl1=2 $lvl2=1
CM129 CKb:58 CKbb:40 2.00618e-18 $lvl1=1 $lvl2=2
CM130 CKb:40 CKbb:44 1.98718e-18 $lvl1=2 $lvl2=1
CM131 CKb:59 CKbb:41 1.86836e-18 $lvl1=1 $lvl2=2
CM132 CKb:48 CKbb:31 1.85192e-18 $lvl1=2 $lvl2=2
CM133 CKb:34 CKbb:26 1.83684e-18 $lvl1=3 $lvl2=3
CM134 CKb:43 CKbb:27 1.83493e-18 $lvl1=2 $lvl2=2
CM135 Mmp36:g CKbb:19 1.801e-18 $lvl1=3 $lvl2=3
CM136 CKb:43 CKbb:30 1.80098e-18 $lvl1=2 $lvl2=2
CM137 CKb:43 CKbb:44 1.79939e-18 $lvl1=2 $lvl2=1
CM138 CKb:44 CKbb:35 1.71306e-18 $lvl1=2 $lvl2=2
CM139 CKb:43 CKbb:43 1.67542e-18 $lvl1=2 $lvl2=1
CM140 CKb:40 CKbb:30 1.66176e-18 $lvl1=2 $lvl2=2
CM141 CKb:22 CKbb:41 1.65191e-18 $lvl1=3 $lvl2=2
CM142 CKb:59 CKbb:47 1.60306e-18 $lvl1=1 $lvl2=1
CM143 CKb:58 CKbb:41 1.58225e-18 $lvl1=1 $lvl2=2
CM144 CKb:52 CKbb:38 1.48806e-18 $lvl1=2 $lvl2=2
CM145 CKb:34 CKbb:38 1.48803e-18 $lvl1=3 $lvl2=2
CM146 CKb:50 CKbb:47 1.45883e-18 $lvl1=2 $lvl2=1
CM147 CKb:48 CKbb:35 1.34063e-18 $lvl1=2 $lvl2=2
CM148 CKb:51 CKbb:40 1.33103e-18 $lvl1=2 $lvl2=2
CM149 CKb:40 CKbb:45 1.32169e-18 $lvl1=2 $lvl2=1
CM150 CKb:40 CKbb:40 1.16302e-18 $lvl1=2 $lvl2=2
CM151 CKb:40 CKbb:46 1.14287e-18 $lvl1=2 $lvl2=1
CM152 CKb:49 CKbb:47 1.11658e-18 $lvl1=2 $lvl2=1
CM153 CKb:48 CKbb:32 1.11095e-18 $lvl1=2 $lvl2=2
CM154 CKb:58 CKbb:27 1.10117e-18 $lvl1=1 $lvl2=2
CM155 CKb:63 CKbb:45 1.07294e-18 $lvl1=1 $lvl2=1
CM156 CKb:39 Mmn40:g 1.05633e-18 $lvl1=3 $lvl2=3
CM157 CKb:34 Mmn40:g 1.05246e-18 $lvl1=3 $lvl2=3
CM158 CKb:62 CKbb:27 1.01687e-18 $lvl1=1 $lvl2=2
CM159 CKb:49 CKbb:40 9.56866e-19 $lvl1=2 $lvl2=2
CM160 CKb:40 CKbb:43 9.44445e-19 $lvl1=2 $lvl2=1
CM161 CKb:45 CKbb:31 9.39843e-19 $lvl1=2 $lvl2=2
CM162 CKb:51 CKbb:39 8.8708e-19 $lvl1=2 $lvl2=2
CM163 CKb:56 CKbb:43 8.35599e-19 $lvl1=1 $lvl2=1
CM164 CKb:59 CKbb:44 7.77851e-19 $lvl1=1 $lvl2=1
CM165 CKb:57 CKbb:46 7.65586e-19 $lvl1=1 $lvl2=1
CM166 CKb:63 CKbb:32 7.49943e-19 $lvl1=1 $lvl2=2
CM167 CKb:57 CKbb:45 7.49913e-19 $lvl1=1 $lvl2=1
CM168 CKb:64 CKbb:32 7.20326e-19 $lvl1=1 $lvl2=2
CM169 CKb:45 CKbb:35 7.12733e-19 $lvl1=2 $lvl2=2
CM170 CKb:34 CKbb:19 7.03905e-19 $lvl1=3 $lvl2=3
CM171 Mmp20:d CKbb:41 6.51806e-19 $lvl1=4 $lvl2=2
CM172 CKb:53 CKbb:26 6.50257e-19 $lvl1=2 $lvl2=3
CM173 CKb:50 CKbb:41 6.3826e-19 $lvl1=2 $lvl2=2
CM174 CKb:40 CKbb:42 6.30139e-19 $lvl1=2 $lvl2=1
CM175 CKb:30 CKbb:36 6.17889e-19 $lvl1=3 $lvl2=2
CM176 CKb:24 CKbb:31 5.96516e-19 $lvl1=3 $lvl2=2
CM177 Mmp36:g CKbb:38 5.75231e-19 $lvl1=3 $lvl2=2
CM178 CKb:44 CKbb:48 5.49286e-19 $lvl1=2 $lvl2=1
CM179 CKb:30 CKbb:26 5.37048e-19 $lvl1=3 $lvl2=3
CM180 CKb:57 CKbb:27 5.13352e-19 $lvl1=1 $lvl2=2
CM181 CKb:50 CKbb:40 4.97939e-19 $lvl1=2 $lvl2=2
CM182 CKb:48 CKbb:48 4.95514e-19 $lvl1=2 $lvl2=1
CM183 CKb:43 CKbb:42 4.7387e-19 $lvl1=2 $lvl2=1
CM184 CKb:54 CKbb:26 4.72005e-19 $lvl1=2 $lvl2=3
CM185 CKb:24 CKbb:40 4.63871e-19 $lvl1=3 $lvl2=2
CM186 CKb:30 CKbb:19 4.46771e-19 $lvl1=3 $lvl2=3
CM187 CKb:57 CKbb:43 1.803e-17 $lvl1=1 $lvl2=1
CM188 CKb:52 CKbb:39 1.02036e-17 $lvl1=2 $lvl2=2
CM189 CKb:60 CKbb:45 1.67427e-17 $lvl1=1 $lvl2=1
CM190 CKb:64 CKbb:48 2.06517e-17 $lvl1=1 $lvl2=1
CM191 CKb:58 CKbb:45 2.19069e-17 $lvl1=1 $lvl2=1
CM192 CKb:40 CKbb:27 5.22309e-17 $lvl1=2 $lvl2=2
CM193 CKb:44 CKbb:31 1.71665e-17 $lvl1=2 $lvl2=2
CM194 CKb:63 CKbb:47 3.45644e-17 $lvl1=1 $lvl2=1
CM195 CKb:58 CKbb:44 1.83525e-17 $lvl1=1 $lvl2=1
CM196 CKb:60 CKbb:47 2.51245e-17 $lvl1=1 $lvl2=1
CM197 CKb:59 CKbb:45 4.82374e-17 $lvl1=1 $lvl2=1
CM198 CKb:26 CKbb:31 6.45777e-17 $lvl1=3 $lvl2=2
CM199 CKb:22 CKbb:27 1.29586e-16 $lvl1=3 $lvl2=2
CM200 CKb:26 VSS!:29 9.63409e-18 $lvl1=3 $lvl2=2
CM201 CKb:44 VSS!:29 9.42311e-18 $lvl1=2 $lvl2=2
CM202 CKb:37 VSS!:10 8.1469e-18 $lvl1=3 $lvl2=2
CM203 CKb:27 VSS!:11 6.12861e-18 $lvl1=3 $lvl2=2
CM204 CKb:48 VSS!:37 5.25446e-18 $lvl1=2 $lvl2=2
CM205 CKb:63 VSS!:37 4.71267e-18 $lvl1=1 $lvl2=2
CM206 CKb:63 VSS!:44 4.64551e-18 $lvl1=1 $lvl2=1
CM207 CKb:45 VSS!:37 3.89902e-18 $lvl1=2 $lvl2=2
CM208 CKb:64 VSS!:37 2.99254e-18 $lvl1=1 $lvl2=2
CM209 Mmn20:d VSS!:29 2.62176e-18 $lvl1=4 $lvl2=2
CM210 CKb:48 VSS!:44 2.60073e-18 $lvl1=2 $lvl2=1
CM211 CKb:45 VSS!:44 2.50965e-18 $lvl1=2 $lvl2=1
CM212 CKb:48 VSS!:12 2.25274e-18 $lvl1=2 $lvl2=2
CM213 CKb:27 VSS!:29 2.24736e-18 $lvl1=3 $lvl2=2
CM214 CKb:60 VSS!:44 2.23607e-18 $lvl1=1 $lvl2=1
CM215 CKb:64 VSS!:29 2.00007e-18 $lvl1=1 $lvl2=2
CM216 CKb:45 VSS!:29 1.67873e-18 $lvl1=2 $lvl2=2
CM217 CKb:27 VSS!:28 1.2278e-18 $lvl1=3 $lvl2=2
CM218 CKb:44 VSS!:3 1.18338e-18 $lvl1=2 $lvl2=4
CM219 CKb:24 VSS!:34 1.12249e-18 $lvl1=3 $lvl2=2
CM220 CKb:26 VSS!:34 6.82485e-17 $lvl1=3 $lvl2=2
CM221 CKb:64 VSS!:44 3.06159e-17 $lvl1=1 $lvl2=1
CM222 CKb:48 VSS!:29 1.40925e-17 $lvl1=2 $lvl2=2
CM223 CKb:44 VSS!:37 2.74335e-17 $lvl1=2 $lvl2=2
ReM350 CKb:56 CKb:57 0.034091 $metal1  $L=0.105 $W=0.385000 $SI_W=0.385 $TYPE=10 $DIR=1 $LLX=2.570000 $LLY=3.130000 $URX=2.955000 $URY=3.235000 $lvl=1
ReM351 CKb:57 CKb:58 0.046997 $metal1  $L=0.1445 $W=0.385000 $SI_W=0.385 $TYPE=10 $DIR=1 $LLX=2.570000 $LLY=2.985000 $URX=2.955000 $URY=3.130000 $lvl=1
ReM352 CKb:58 CKb:59 0.657690 $metal1  $L=1.21 $W=0.230000 $SI_W=0.23 $TYPE=10 $DIR=1 $LLX=2.570000 $LLY=1.775000 $URX=2.800000 $URY=2.985000 $lvl=1
ReM353 CKb:59 CKb:60 0.052536 $metal1  $L=0.145 $W=0.345000 $SI_W=0.345 $TYPE=10 $DIR=1 $LLX=2.570000 $LLY=1.630000 $URX=2.915000 $URY=1.775000 $lvl=1
ReM354 CKb:60 CKb:61 0.052536 $metal1  $L=0.145 $W=0.345000 $SI_W=0.345 $TYPE=10 $DIR=1 $LLX=2.570000 $LLY=1.485000 $URX=2.915000 $URY=1.630000 $lvl=1
ReM355 CKb:56 CKb:62 0.021739 $metal1  $L=0.04 $W=0.230000 $SI_W=0.23 $TYPE=10 $DIR=1 $LLX=2.724500 $LLY=3.235000 $URX=2.954500 $URY=3.275000 $lvl=1
ReM356 CKb:61 CKb:63 0.372283 $metal1  $L=0.685 $W=0.230000 $SI_W=0.23 $TYPE=10 $DIR=1 $LLX=2.570000 $LLY=0.800000 $URX=2.800000 $URY=1.485000 $lvl=1