*
*|DSPF 1.5
*
*|DATE "Wed Jan  8 18:47:03 2025"
*|VENDOR "Cadence Design Systems"
*|PROGRAM "Cadence Quantus Extraction"
*|VERSION "22.1.0-p089 Linux 64 bit - (Thu Jan 19 11:47:08 PST 2023)"
*|DESIGN TBUFX4_HS
*|DIVIDER /
*|DELIMITER :
*|DeviceFingerDelim "@"
*|BUSBIT []
*|GLOBAL_TEMPERATURE 25
*|OPERATING_TEMPERATURE 25

** *VIA_COVERAGE_CODES
** *index FF FS FP FU SF SS SP SU PF PS PP PU UF US UP UU X_by_Y
** * "FF" stands for Full landing and Full coverage
** *0 0 0 0 0 0 0 0 0 0 0 0 0 0 0 0 0
** *1 0 0 0 0 0 0 0 0 0 0 0 0 0 0 0 1 1x1
** *2 0 0 0 0 0 0 0 0 0 0 0 0 0 0 1 0 1x1
** *3 0 0 0 0 0 0 0 0 0 0 0 0 0 1 0 0 1x1
** *4 0 0 0 0 0 0 0 0 0 0 0 0 1 0 0 0 1x1
** *5 0 0 0 0 0 0 0 0 0 0 0 1 0 0 0 0 1x1
** *6 0 0 0 0 0 0 0 0 0 0 1 0 0 0 0 0 1x1
** *7 0 0 0 0 0 0 0 0 0 1 0 0 0 0 0 0 1x1
** *8 0 0 0 0 0 0 0 0 1 0 0 0 0 0 0 0 1x1
** *9 0 0 0 0 0 0 0 1 0 0 0 0 0 0 0 0 1x1
** *10 0 0 0 0 0 0 1 0 0 0 0 0 0 0 0 0 1x1
** *11 0 0 0 0 0 1 0 0 0 0 0 0 0 0 0 0 1x1
** *12 0 0 0 0 1 0 0 0 0 0 0 0 0 0 0 0 1x1
** *13 0 0 0 1 0 0 0 0 0 0 0 0 0 0 0 0 1x1
** *14 0 0 1 0 0 0 0 0 0 0 0 0 0 0 0 0 1x1
** *15 0 1 0 0 0 0 0 0 0 0 0 0 0 0 0 0 1x1
** *16 1 0 0 0 0 0 0 0 0 0 0 0 0 0 0 0 1x1

** *RESISTOR_TYPES
** *1 SHORTING_ELEMENT
** *2 PRES_NG
** *3 PRES_PG
** *4 PRES_NF
** *5 PRES_PF
** *6 TCN_NDIFF
** *7 TCN_PDIFF
** *8 TCN_NFIELD
** *9 TCN_PFIELD
** *10 QUALITY_EXTRACTED
** *11 GCNLAND
** *12 TCNLAND
** *13 DUMMY
** *14 RSD
** *15 BRIDGE

** *RESISTOR_CURRENT_DIRECTION
** *0 HORIZONTAL
** *1 VERTICAL
** *2 45 DEGREE

** QRC_TECH_DIR /vols/wfo_devel/projects/reference_SKY130/tech/sky130_release_0.0.4/quantus/extraction/typical 
** HIERARCHICAL_SPLIT_PINS_DELIMITER '%'
** caps2d version: 10
*
.SUBCKT  TBUFX4_HS A OE Y
*
*Net Section
*
*|GROUND_NET VSS!
*
*LAYER_MAP
*0 none
*1 metal1
*2 li
*3 poly
*4 diff
*5 licon_diff
*6 mcon
*7 licon
*8 FOX

*|NET A 2.18228e-15
*|P (A X 0 0.9350 2.4800) // $llx=0.9350 $lly=2.4800 $urx=0.9350 $ury=2.4800 $lvl=1
*|I (Mmp1:g Mmp1 g X 0 0.9650 3.0150) // $llx=0.9650 $lly=3.0150 $urx=0.9650 $ury=3.0150 $lvl=3
*|I (Mmp3:g Mmp3 g X 0 2.3450 3.0150) // $llx=2.3450 $lly=3.0150 $urx=2.3450 $ury=3.0150 $lvl=3
*|I (Mmn1:g Mmn1 g X 0 0.9650 0.7750) // $llx=0.9650 $lly=0.7750 $urx=0.9650 $ury=0.7750 $lvl=3
*|I (Mmn3:g Mmn3 g X 0 1.8250 0.7750) // $llx=1.8250 $lly=0.7750 $urx=1.8250 $ury=0.7750 $lvl=3
*|S (A:15 0.9650 3.8950) // $llx=0.9650 $lly=3.8950 $urx=0.9650 $ury=3.8950 $lvl=3
*|S (A:16 0.9650 1.9600) // $llx=0.9650 $lly=1.9600 $urx=0.9650 $ury=1.9600 $lvl=3
*|S (A:17 0.9650 1.7950) // $llx=0.9650 $lly=1.7950 $urx=0.9650 $ury=1.7950 $lvl=3
*|S (A:18 0.9650 0.2450) // $llx=0.9650 $lly=0.2450 $urx=0.9650 $ury=0.2450 $lvl=3
*|S (A:19 2.3450 3.8950) // $llx=2.3450 $lly=3.8950 $urx=2.3450 $ury=3.8950 $lvl=3
*|S (A:20 2.3450 1.9525) // $llx=2.3450 $lly=1.9525 $urx=2.3450 $ury=1.9525 $lvl=3
*|S (A:21 2.0850 1.9600) // $llx=2.0850 $lly=1.9600 $urx=2.0850 $ury=1.9600 $lvl=3
*|S (A:22 1.8250 1.9525) // $llx=1.8250 $lly=1.9525 $urx=1.8250 $ury=1.9525 $lvl=3
*|S (A:23 1.8250 0.2450) // $llx=1.8250 $lly=0.2450 $urx=1.8250 $ury=0.2450 $lvl=3
*|S (A:24 2.4700 1.9600) // $llx=2.4700 $lly=1.9600 $urx=2.4700 $ury=1.9600 $lvl=2
*|S (A:25 2.0850 1.9600) // $llx=2.0850 $lly=1.9600 $urx=2.0850 $ury=1.9600 $lvl=2
*|S (A:26 0.9650 1.9600) // $llx=0.9650 $lly=1.9600 $urx=0.9650 $ury=1.9600 $lvl=2
*|S (A:27 0.9200 1.9600) // $llx=0.9200 $lly=1.9600 $urx=0.9200 $ury=1.9600 $lvl=2
*|S (A:28 0.5250 1.9600) // $llx=0.5250 $lly=1.9600 $urx=0.5250 $ury=1.9600 $lvl=2
*|S (A:29 0.9200 3.1900) // $llx=0.9200 $lly=3.1900 $urx=0.9200 $ury=3.1900 $lvl=1
*|S (A:30 0.9200 1.9600) // $llx=0.9200 $lly=1.9600 $urx=0.9200 $ury=1.9600 $lvl=1
*|S (A:31 0.9200 1.8150) // $llx=0.9200 $lly=1.8150 $urx=0.9200 $ury=1.8150 $lvl=1
CA1 Mmn3:g VSS! 3.91367e-18 $lvl=3
CA2 Mmn1:g VSS! 3.74123e-18 $lvl=3
CA3 A:19 VSS! 3.50353e-18 $lvl=3
CA4 A:15 VSS! 3.67435e-18 $lvl=3
CA5 A:30 VSS! 8.57137e-18 $lvl=1
CA6 A:25 VSS! 1.29392e-17 $lvl=2
CA7 A:28 VSS! 5.30095e-18 $lvl=2
CA8 A:27 VSS! 5.40552e-18 $lvl=2
CA9 A:16 VSS! 1.86924e-17 $lvl=3
CA10 A:21 VSS! 2.59786e-17 $lvl=3
CA11 A VSS! 8.18777e-18 $lvl=1
CA12 A:21 net144:3 6.86173e-19 $lvl1=3 $lvl2=2
CA13 A:25 net144 6.09633e-19 $lvl1=2 $lvl2=2
CA14 A:21 net144 5.34232e-19 $lvl1=3 $lvl2=2
CA15 A:15 net127:4 1.20766e-18 $lvl1=3 $lvl2=2
CA16 A:15 net127 9.32334e-19 $lvl1=3 $lvl2=2
CA17 A:16 Mmp1:d 1.39595e-18 $lvl1=3 $lvl2=4
CA18 Mmn3:g net144:3 1.26673e-16 $lvl1=3 $lvl2=2
CA19 A net127:3 3.22529e-18 $lvl1=1 $lvl2=2
CA20 A net127:4 2.73692e-18 $lvl1=1 $lvl2=2
CA21 A:15 net127:3 6.87309e-17 $lvl1=3 $lvl2=2
CA22 A:25 non:40 5.95463e-18 $lvl1=2 $lvl2=1
CA23 A:15 non:31 5.52103e-18 $lvl1=3 $lvl2=2
CA24 A:21 non:31 5.41989e-18 $lvl1=3 $lvl2=2
CA25 A:25 non:31 4.17343e-18 $lvl1=2 $lvl2=2
CA26 A non:40 3.70583e-18 $lvl1=1 $lvl2=1
CA27 A:27 non:35 3.63219e-18 $lvl1=2 $lvl2=2
CA28 A:27 non:31 3.2163e-18 $lvl1=2 $lvl2=2
CA29 A:27 non:41 2.66153e-18 $lvl1=2 $lvl2=1
CA30 A:21 non:35 2.5809e-18 $lvl1=3 $lvl2=2
CA31 A non:31 2.56459e-18 $lvl1=1 $lvl2=2
CA32 A:21 Mmp2:d 2.12159e-18 $lvl1=3 $lvl2=4
CA33 A:30 non:41 1.8588e-18 $lvl1=1 $lvl2=1
CA34 A:16 non:31 1.51657e-18 $lvl1=3 $lvl2=2
CA35 A:27 non:40 1.37347e-18 $lvl1=2 $lvl2=1
CA36 A non:38 1.3328e-18 $lvl1=1 $lvl2=1
CA37 A:30 non:40 1.20628e-18 $lvl1=1 $lvl2=1
CA38 A:21 non:41 1.13601e-18 $lvl1=3 $lvl2=1
CA39 A:19 non:31 1.05647e-18 $lvl1=3 $lvl2=2
CA40 A:25 non:35 1.10954e-17 $lvl1=2 $lvl2=2
CA41 A:25 non:41 1.13214e-17 $lvl1=2 $lvl2=1
CA42 Mmn1:g non:26 1.28393e-16 $lvl1=3 $lvl2=2
CA43 A:25 pon:31 6.2726e-18 $lvl1=2 $lvl2=2
CA44 A:25 pon:35 4.00274e-18 $lvl1=2 $lvl2=2
CA45 A:21 pon:27 3.26361e-18 $lvl1=3 $lvl2=2
CA46 A:21 pon:31 2.51168e-18 $lvl1=3 $lvl2=2
CA47 A:21 pon:35 2.11847e-18 $lvl1=3 $lvl2=2
CA48 A:25 pon:36 2.07606e-18 $lvl1=2 $lvl2=1
CA49 A:19 pon:27 2.52373e-16 $lvl1=3 $lvl2=2
CA50 A:28 OEb:27 7.09598e-18 $lvl1=2 $lvl2=1
CA51 A:25 OEb:23 6.46791e-18 $lvl1=2 $lvl2=2
CA52 A:30 OEb:26 5.82085e-18 $lvl1=1 $lvl2=1
CA53 A:16 OEb:9 4.18421e-18 $lvl1=3 $lvl2=3
CA54 A:25 OEb:33 3.73652e-18 $lvl1=2 $lvl2=1
CA55 A:16 OEb:8 3.48157e-18 $lvl1=3 $lvl2=3
CA56 A:21 OEb:9 3.32399e-18 $lvl1=3 $lvl2=3
CA57 A:25 OEb:9 3.26025e-18 $lvl1=2 $lvl2=3
CA58 A:27 OEb:9 3.2178e-18 $lvl1=2 $lvl2=3
CA59 A:28 OEb:26 3.18952e-18 $lvl1=2 $lvl2=1
CA60 A OEb:29 3.06544e-18 $lvl1=1 $lvl2=1
CA61 Mmn3:g OEb:9 2.96523e-18 $lvl1=3 $lvl2=3
CA62 A:16 OEb:23 2.9003e-18 $lvl1=3 $lvl2=2
CA63 Mmn1:g OEb:9 2.56273e-18 $lvl1=3 $lvl2=3
CA64 A OEb:12 2.08979e-18 $lvl1=1 $lvl2=2
CA65 A:21 OEb:23 2.02902e-18 $lvl1=3 $lvl2=2
CA66 A:27 OEb:8 1.97313e-18 $lvl1=2 $lvl2=3
CA67 A:21 OEb:8 1.89834e-18 $lvl1=3 $lvl2=3
CA68 A OEb:26 1.37166e-18 $lvl1=1 $lvl2=1
CA69 A:27 OEb:27 1.27211e-18 $lvl1=2 $lvl2=1
CA70 A:30 OEb:23 1.19063e-18 $lvl1=1 $lvl2=2
CA71 A:30 OEb:31 1.12843e-18 $lvl1=1 $lvl2=1
CA72 A:25 OEb:8 1.04962e-18 $lvl1=2 $lvl2=3
CA73 A OEb:15 9.65769e-19 $lvl1=1 $lvl2=2
CA74 A:15 OEb:31 7.34543e-19 $lvl1=3 $lvl2=1
CA75 Mmn1:g OEb:23 6.94895e-19 $lvl1=3 $lvl2=2
CA76 A:28 OEb:12 6.40427e-19 $lvl1=2 $lvl2=2
CA77 A:30 OEb:33 6.28551e-17 $lvl1=1 $lvl2=1
CA78 A OEb:33 3.01709e-17 $lvl1=1 $lvl2=1
CA79 A OEb:27 3.4194e-17 $lvl1=1 $lvl2=1
CA80 A:27 OEb:23 1.03826e-17 $lvl1=2 $lvl2=2
CA81 A:30 OEb:27 1.44088e-17 $lvl1=1 $lvl2=1
CA82 A OEb:30 1.04063e-17 $lvl1=1 $lvl2=1
CA83 A OEb:31 9.51159e-17 $lvl1=1 $lvl2=1
CA84 A:27 OEb:33 1.41205e-17 $lvl1=2 $lvl2=1
CA85 Mmn1:g VSS!:11 7.10156e-18 $lvl1=3 $lvl2=2
CA86 Mmn3:g VSS!:10 1.02854e-17 $lvl1=3 $lvl2=2
CA87 Mmn1:g VSS!:24 1.26767e-16 $lvl1=3 $lvl2=2
CA88 Mmn3:g VSS!:22 1.29632e-16 $lvl1=3 $lvl2=2
CA89 A:16 VDD!:3 9.42989e-18 $lvl1=3 $lvl2=2
CA90 A:19 VDD!:6 8.96006e-18 $lvl1=3 $lvl2=2
CA91 A VDD! 7.4358e-18 $lvl1=1 $lvl2=1
CA92 A:21 VDD! 5.79241e-18 $lvl1=3 $lvl2=1
CA93 A:30 VDD! 4.3903e-18 $lvl1=1 $lvl2=1
CA94 A:16 VDD! 4.32001e-18 $lvl1=3 $lvl2=1
CA95 A:28 VDD! 3.84262e-18 $lvl1=2 $lvl2=1
CA96 A:30 VDD!:3 3.67551e-18 $lvl1=1 $lvl2=2
CA97 A VDD!:27 3.1312e-18 $lvl1=1 $lvl2=1
CA98 A:21 Mmp3:s 2.90548e-18 $lvl1=3 $lvl2=4
CA99 A:25 VDD!:9 1.46471e-17 $lvl1=2 $lvl2=2
CA100 A VDD!:3 3.33872e-17 $lvl1=1 $lvl2=2
CA101 A:21 VDD!:9 1.54066e-17 $lvl1=3 $lvl2=2
CA102 A:19 VDD!:9 2.51363e-16 $lvl1=3 $lvl2=2
CA103 A:27 VDD!:3 1.01454e-17 $lvl1=2 $lvl2=2
CA104 A:28 VDD!:3 1.18251e-17 $lvl1=2 $lvl2=2
CA105 A:15 VDD!:4 1.06838e-17 $lvl1=3 $lvl2=2
CA106 A:15 VDD!:3 2.59976e-16 $lvl1=3 $lvl2=2
CA107 A:25 OE:30 9.15909e-18 $lvl1=2 $lvl2=2
CA108 A:25 OE:22 5.12683e-18 $lvl1=2 $lvl2=3
CA109 A:28 OE:27 4.76153e-18 $lvl1=2 $lvl2=2
CA110 A:21 OE:30 4.70432e-18 $lvl1=3 $lvl2=2
CA111 A:28 OE:17 4.47608e-18 $lvl1=2 $lvl2=3
CA112 A:25 OE:33 4.43016e-18 $lvl1=2 $lvl2=1
CA113 A:16 OE:17 4.42515e-18 $lvl1=3 $lvl2=3
CA114 A:25 OE:31 4.25302e-18 $lvl1=2 $lvl2=2
CA115 A:27 OE:27 3.56481e-18 $lvl1=2 $lvl2=2
CA116 A:16 OE:27 2.69886e-18 $lvl1=3 $lvl2=2
CA117 Mmn1:g OE:17 2.64679e-18 $lvl1=3 $lvl2=3
CA118 A:28 OE:28 2.14151e-18 $lvl1=2 $lvl2=2
CA119 Mmn3:g OE:22 2.01347e-18 $lvl1=3 $lvl2=3
CA120 A:27 OE:26 1.96841e-18 $lvl1=2 $lvl2=2
CA121 A:27 OE:39 1.82447e-18 $lvl1=2 $lvl2=1
CA122 A:28 OE:26 1.66087e-18 $lvl1=2 $lvl2=2
CA123 A:21 OE:20 1.66075e-18 $lvl1=3 $lvl2=3
CA124 A:28 OE:39 1.50892e-18 $lvl1=2 $lvl2=1
CA125 A:21 OE:32 1.47933e-18 $lvl1=3 $lvl2=1
CA126 A:21 OE:31 1.31596e-18 $lvl1=3 $lvl2=2
CA127 A:30 OE:26 1.01821e-18 $lvl1=1 $lvl2=2
CA128 A OE:39 9.29575e-19 $lvl1=1 $lvl2=1
CA129 A:27 OE:17 9.07635e-19 $lvl1=2 $lvl2=3
CA130 Mmn1:g OE:27 8.61481e-19 $lvl1=3 $lvl2=2
CA131 A OE:32 7.40618e-19 $lvl1=1 $lvl2=1
CA132 A:21 OE:22 1.35694e-17 $lvl1=3 $lvl2=3
CA133 A:30 OE:39 1.82835e-17 $lvl1=1 $lvl2=1
CA134 A:25 OE:32 1.99803e-17 $lvl1=2 $lvl2=1
ReA1 A:29 A 0.341346 $metal1  $L=0.71 $W=0.260000 $SI_W=0.26 $TYPE=10 $DIR=1 $LLX=0.790000 $LLY=2.480000 $URX=1.050000 $URY=3.190000 $lvl=1
ReA2 A A:30 0.250000 $metal1  $L=0.52 $W=0.260000 $SI_W=0.26 $TYPE=10 $DIR=1 $LLX=0.790000 $LLY=1.960000 $URX=1.050000 $URY=2.480000 $lvl=1
ReA3 A:30 A:31 0.078804 $metal1  $L=0.145 $W=0.230000 $SI_W=0.23 $TYPE=10 $DIR=1 $LLX=0.805000 $LLY=1.815000 $URX=1.035000 $URY=1.960000 $lvl=1
RfA4 A:24 A:25 28.988235 $li  $L=0.385 $W=0.170000 $SI_W=0.17 $TYPE=10 $DIR=0 $LLX=2.085000 $LLY=1.875000 $URX=2.470000 $URY=2.045000 $lvl=2
RfA5 A:25 A:26 84.329414 $li  $L=1.12 $W=0.170000 $SI_W=0.17 $TYPE=10 $DIR=0 $LLX=0.965000 $LLY=1.875000 $URX=2.085000 $URY=2.045000 $lvl=2
RfA6 A:26 A:27 3.388236 $li  $L=0.045 $W=1000000 $SI_W=1000000 $TYPE=1,10 $DIR=0 $LLX=0.920000 $LLY=1.875000 $URX=0.965000 $URY=2.045000 $lvl=2
RfA7 A:27 A:28 29.741175 $li  $L=0.395 $W=0.170000 $SI_W=0.17 $TYPE=10 $DIR=0 $LLX=0.525000 $LLY=1.875000 $URX=0.920000 $URY=2.045000 $lvl=2
RgA8 A:15 Mmp1:g 282.773346 $poly  $L=0.88 $W=0.150000 $SI_W=0.15 $TYPE=10 $DIR=1 $LLX=0.890000 $LLY=3.015000 $URX=1.040000 $URY=3.895000 $lvl=3
RgA9 Mmp1:g A:16 320.165771 $poly  $L=1.055 $W=0.150000 $SI_W=0.15 $TYPE=10 $DIR=1 $LLX=0.890000 $LLY=1.960000 $URX=1.040000 $URY=3.015000 $lvl=3
RgA10 A:16 A:17 34.134449 $poly  $L=0.1645 $W=0.270000 $SI_W=0.27 $TYPE=10 $DIR=1 $LLX=0.830000 $LLY=1.795500 $URX=1.100000 $URY=1.960000 $lvl=3
RgA11 A:17 Mmn1:g 327.804626 $poly  $L=1.02 $W=0.150000 $SI_W=0.15 $TYPE=10 $DIR=1 $LLX=0.890000 $LLY=0.775000 $URX=1.040000 $URY=1.795000 $lvl=3
RgA12 Mmn1:g A:18 170.306671 $poly  $L=0.53 $W=0.150000 $SI_W=0.15 $TYPE=10 $DIR=1 $LLX=0.890000 $LLY=0.245000 $URX=1.040000 $URY=0.775000 $lvl=3
RgA13 A:19 Mmp3:g 282.773346 $poly  $L=0.88 $W=0.150000 $SI_W=0.15 $TYPE=10 $DIR=1 $LLX=2.270000 $LLY=3.015000 $URX=2.420000 $URY=3.895000 $lvl=3
RgA14 Mmp3:g A:20 341.336334 $poly  $L=1.06225 $W=0.150000 $SI_W=0.15 $TYPE=10 $DIR=1 $LLX=2.270000 $LLY=1.952500 $URX=2.420000 $URY=3.014500 $lvl=3
RgA15 A:20 A:21 44.014214 $poly  $L=0.26025 $W=0.285000 $SI_W=0.285 $TYPE=10 $DIR=0 $LLX=2.085000 $LLY=1.810000 $URX=2.345000 $URY=2.095000 $lvl=3
RgA16 A:21 A:22 43.929649 $poly  $L=0.25975 $W=0.285000 $SI_W=0.285 $TYPE=10 $DIR=0 $LLX=1.825000 $LLY=1.810000 $URX=2.085000 $URY=2.095000 $lvl=3
RgA17 A:22 Mmn3:g 378.450348 $poly  $L=1.17775 $W=0.150000 $SI_W=0.15 $TYPE=10 $DIR=1 $LLX=1.750000 $LLY=0.774500 $URX=1.900000 $URY=1.952500 $lvl=3
RgA18 Mmn3:g A:23 170.306671 $poly  $L=0.53 $W=0.150000 $SI_W=0.15 $TYPE=10 $DIR=1 $LLX=1.750000 $LLY=0.245000 $URX=1.900000 $URY=0.775000 $lvl=3
RjA19 A:27 A:30 152.000000 $mcon  $L=0.17 $W=0.17 $A=0.0289 $VC=0 $SAVL=0 $SAVC=0 $SI_A=0.0289 $COVER_DIR=0 $LLX=0.000000 $LLY=0.000000 $URX=0.170000 $URY=0.170000 $lvl=6
RiA20 A:21 A:25 7.500000 $licon  $A=0.0578 $VC=0 $SAVL=0 $SAVC=0 $SI_A=0.0578 $COVER_DIR=0 $LLX=0.000000 $LLY=0.000000 $URX=-0.057800 $URY=-2.000000 $lvl=7
RiA21 A:16 A:26 15.000000 $licon  $L=0.17 $W=0.17 $A=0.0289 $VC=0 $SAVL=0 $SAVC=0 $SI_A=0.0289 $COVER_DIR=0 $LLX=0.000000 $LLY=0.000000 $URX=0.170000 $URY=0.170000 $lvl=7
*
*|NET non 4.0055e-15
*|I (Mmp2:d Mmp2 d X 0 1.4705 3.0150) // $llx=1.4705 $lly=3.0150 $urx=1.4705 $ury=3.0150 $lvl=4
*|I (Mmn1:d Mmn1 d X 0 1.0405 0.7750) // $llx=1.0405 $lly=0.7750 $urx=1.0405 $ury=0.7750 $lvl=4
*|I (Mmn2:d Mmn2 d X 0 1.3195 0.7750) // $llx=1.3195 $lly=0.7750 $urx=1.3195 $ury=0.7750 $lvl=4
*|I (Mmn5:g Mmn5 g X 0 3.2050 0.7750) // $llx=3.2050 $lly=0.7750 $urx=3.2050 $ury=0.7750 $lvl=3
*|I (Mmn5@1:g Mmn5@1 g X 0 3.6350 0.7750) // $llx=3.6350 $lly=0.7750 $urx=3.6350 $ury=0.7750 $lvl=3
*|I (Mmn5@2:g Mmn5@2 g X 0 4.0650 0.7750) // $llx=4.0650 $lly=0.7750 $urx=4.0650 $ury=0.7750 $lvl=3
*|I (Mmn5@3:g Mmn5@3 g X 0 4.4950 0.7750) // $llx=4.4950 $lly=0.7750 $urx=4.4950 $ury=0.7750 $lvl=3
*|S (non 3.2050 0.7750) // $llx=3.2050 $lly=0.7750 $urx=3.2050 $ury=0.7750 $lvl=3
*|S (non:17 3.2050 0.2450) // $llx=3.2050 $lly=0.2450 $urx=3.2050 $ury=0.2450 $lvl=3
*|S (non:18 3.2050 1.4300) // $llx=3.2050 $lly=1.4300 $urx=3.2050 $ury=1.4300 $lvl=3
*|S (non:19 3.6350 1.4300) // $llx=3.6350 $lly=1.4300 $urx=3.6350 $ury=1.4300 $lvl=3
*|S (non:20 3.6350 0.2450) // $llx=3.6350 $lly=0.2450 $urx=3.6350 $ury=0.2450 $lvl=3
*|S (non:21 3.8500 1.4300) // $llx=3.8500 $lly=1.4300 $urx=3.8500 $ury=1.4300 $lvl=3
*|S (non:22 4.0650 1.4300) // $llx=4.0650 $lly=1.4300 $urx=4.0650 $ury=1.4300 $lvl=3
*|S (non:23 4.0650 0.2450) // $llx=4.0650 $lly=0.2450 $urx=4.0650 $ury=0.2450 $lvl=3
*|S (non:24 4.4950 1.4300) // $llx=4.4950 $lly=1.4300 $urx=4.4950 $ury=1.4300 $lvl=3
*|S (non:25 4.4950 0.2450) // $llx=4.4950 $lly=0.2450 $urx=4.4950 $ury=0.2450 $lvl=3
*|S (non:26 1.1800 1.1550) // $llx=1.1800 $lly=1.1550 $urx=1.1800 $ury=1.1550 $lvl=2
*|S (non:28 1.1800 0.7750) // $llx=1.1800 $lly=0.7750 $urx=1.1800 $ury=0.7750 $lvl=2
*|S (non:29 1.1800 0.7700) // $llx=1.1800 $lly=0.7700 $urx=1.1800 $ury=0.7700 $lvl=2
*|S (non:30 1.1800 0.3950) // $llx=1.1800 $lly=0.3950 $urx=1.1800 $ury=0.3950 $lvl=2
*|S (non:31 1.6100 3.7450) // $llx=1.6100 $lly=3.7450 $urx=1.6100 $ury=3.7450 $lvl=2
*|S (non:32 1.6100 3.3400) // $llx=1.6100 $lly=3.3400 $urx=1.6100 $ury=3.3400 $lvl=2
*|S (non:34 1.6100 3.0150) // $llx=1.6100 $lly=3.0150 $urx=1.6100 $ury=3.0150 $lvl=2
*|S (non:35 1.6100 2.2850) // $llx=1.6100 $lly=2.2850 $urx=1.6100 $ury=2.2850 $lvl=2
*|S (non:36 3.9100 1.4300) // $llx=3.9100 $lly=1.4300 $urx=3.9100 $ury=1.4300 $lvl=2
*|S (non:37 3.8500 1.4300) // $llx=3.8500 $lly=1.4300 $urx=3.8500 $ury=1.4300 $lvl=2
*|S (non:38 1.6100 3.4850) // $llx=1.6100 $lly=3.4850 $urx=1.6100 $ury=3.4850 $lvl=1
*|S (non:39 1.6100 3.3400) // $llx=1.6100 $lly=3.3400 $urx=1.6100 $ury=3.3400 $lvl=1
*|S (non:40 1.6100 3.1950) // $llx=1.6100 $lly=3.1950 $urx=1.6100 $ury=3.1950 $lvl=1
*|S (non:41 1.5950 0.8450) // $llx=1.5950 $lly=0.8450 $urx=1.5950 $ury=0.8450 $lvl=1
*|S (non:42 1.3245 0.7850) // $llx=1.3245 $lly=0.7850 $urx=1.3245 $ury=0.7850 $lvl=1
*|S (non:43 1.1800 0.7700) // $llx=1.1800 $lly=0.7700 $urx=1.1800 $ury=0.7700 $lvl=1
*|S (non:44 3.9100 3.3400) // $llx=3.9100 $lly=3.3400 $urx=3.9100 $ury=3.3400 $lvl=1
*|S (non:45 3.9100 1.4300) // $llx=3.9100 $lly=1.4300 $urx=3.9100 $ury=1.4300 $lvl=1
*|S (non:46 3.9100 1.2850) // $llx=3.9100 $lly=1.2850 $urx=3.9100 $ury=1.2850 $lvl=1
*|S (non:47 1.0350 0.7850) // $llx=1.0350 $lly=0.7850 $urx=1.0350 $ury=0.7850 $lvl=1
CH1 Mmn5@3:g VSS! 2.76977e-18 $lvl=3
CH2 Mmn5@1:g VSS! 2.24103e-18 $lvl=3
CH3 Mmn1:d VSS! 8.96135e-19 $lvl=4
CH4 Mmp2:d VSS! 1.77121e-18 $lvl=4
CH5 non:23 VSS! 3.26592e-18 $lvl=3
CH6 non:43 VSS! 6.35379e-18 $lvl=1
CH7 non:40 VSS! 9.4141e-18 $lvl=1
CH8 non:38 VSS! 9.60867e-18 $lvl=1
CH9 non:47 VSS! 3.95767e-18 $lvl=1
CH10 non:46 VSS! 1.17306e-17 $lvl=1
CH11 non:44 VSS! 1.13334e-17 $lvl=1
CH12 non:41 VSS! 1.54723e-17 $lvl=1
CH13 non:37 VSS! 6.97632e-18 $lvl=2
CH14 non:31 VSS! 3.55951e-18 $lvl=2
CH15 non:35 VSS! 4.97949e-18 $lvl=2
CH16 non:26 VSS! 6.87656e-18 $lvl=2
CH17 non:30 VSS! 1.301e-18 $lvl=2
CH18 non:29 VSS! 2.49041e-18 $lvl=2
CH19 non:32 VSS! 2.78366e-18 $lvl=2
CH20 non:36 VSS! 1.94046e-18 $lvl=2
CH21 non:21 VSS! 3.71498e-17 $lvl=3
CH22 non VSS! 4.44342e-18 $lvl=3
CH23 non:32 net127 1.19191e-18 $lvl1=2 $lvl2=2
CH24 non:32 net127:4 7.402e-19 $lvl1=2 $lvl2=2
CH25 non:40 net127:4 6.34622e-19 $lvl1=1 $lvl2=2
CH26 non:40 net127:3 5.50714e-19 $lvl1=1 $lvl2=2
CH27 non:32 net127:3 3.34763e-18 $lvl1=2 $lvl2=2
CH28 non:31 Mmp1:d 1.76034e-18 $lvl1=2 $lvl2=4
CH29 non:31 net127 6.17651e-18 $lvl1=2 $lvl2=2
CH30 non:31 net127:4 7.87141e-18 $lvl1=2 $lvl2=2
CH31 non:31 net127:3 2.5623e-17 $lvl1=2 $lvl2=2
CH32 non:23 VSS!:5 7.95947e-18 $lvl1=3 $lvl2=2
CH33 non VSS!:10 7.67896e-18 $lvl1=3 $lvl2=2
CH34 non:36 VSS!:16 7.55243e-18 $lvl1=2 $lvl2=2
CH35 non:30 VSS!:10 7.00707e-18 $lvl1=2 $lvl2=2
CH36 Mmn5@1:g VSS!:5 6.97147e-18 $lvl1=3 $lvl2=2
CH37 non:30 VSS!:22 6.27417e-18 $lvl1=2 $lvl2=2
CH38 non:30 VSS!:11 6.15934e-18 $lvl1=2 $lvl2=2
CH39 non:30 VSS!:24 5.68589e-18 $lvl1=2 $lvl2=2
CH40 non:37 VSS!:1 5.34526e-18 $lvl1=2 $lvl2=2
CH41 non:21 VSS!:1 5.28407e-18 $lvl1=3 $lvl2=2
CH42 non:37 VSS!:19 5.28405e-18 $lvl1=2 $lvl2=2
CH43 Mmn5@3:g VSS!:4 5.00362e-18 $lvl1=3 $lvl2=2
CH44 non:26 VSS!:10 4.96593e-18 $lvl1=2 $lvl2=2
CH45 non:29 VSS!:24 4.02681e-18 $lvl1=2 $lvl2=2
CH46 non:21 VSS!:19 3.66397e-18 $lvl1=3 $lvl2=2
CH47 non:29 VSS!:22 3.56038e-18 $lvl1=2 $lvl2=2
CH48 non:26 VSS!:11 3.55164e-18 $lvl1=2 $lvl2=2
CH49 non:43 VSS!:27 3.22292e-18 $lvl1=1 $lvl2=1
CH50 non:41 VSS!:27 2.93653e-18 $lvl1=1 $lvl2=1
CH51 non:30 VSS!:7 2.42081e-18 $lvl1=2 $lvl2=2
CH52 Mmn5@3:g VSS!:5 2.33742e-18 $lvl1=3 $lvl2=2
CH53 non:21 Mmn5@1:s 2.25262e-18 $lvl1=3 $lvl2=4
CH54 non:47 VSS!:24 2.17675e-18 $lvl1=1 $lvl2=2
CH55 non:43 VSS!:22 2.07691e-18 $lvl1=1 $lvl2=2
CH56 Mmn5@1:g VSS!:10 2.02057e-18 $lvl1=3 $lvl2=2
CH57 non:30 VSS!:27 1.68916e-18 $lvl1=2 $lvl2=1
CH58 non:46 VSS!:27 1.24394e-18 $lvl1=1 $lvl2=1
CH59 non:47 VSS!:27 1.03054e-18 $lvl1=1 $lvl2=1
CH60 Mmn1:d VSS!:10 9.71525e-19 $lvl1=4 $lvl2=2
CH61 non:21 Mmn5@3:s 8.86477e-19 $lvl1=3 $lvl2=4
CH62 Mmn1:d VSS!:11 8.74799e-19 $lvl1=4 $lvl2=2
CH63 non:40 VSS!:27 8.30881e-19 $lvl1=1 $lvl2=1
CH64 Mmn1:d VSS!:22 8.21964e-19 $lvl1=4 $lvl2=2
CH65 Mmn1:d VSS!:24 6.52088e-19 $lvl1=4 $lvl2=2
CH66 non:26 VSS!:8 6.38948e-19 $lvl1=2 $lvl2=4
CH67 Mmn5@3:g VSS!:1 1.31283e-16 $lvl1=3 $lvl2=2
CH68 non:26 VSS!:22 4.41858e-17 $lvl1=2 $lvl2=2
CH69 non:37 VSS!:16 1.245e-17 $lvl1=2 $lvl2=2
CH70 non VSS!:19 1.30772e-16 $lvl1=3 $lvl2=2
CH71 non:23 VSS!:16 1.25908e-16 $lvl1=3 $lvl2=2
CH72 non:21 VSS!:16 1.82379e-17 $lvl1=3 $lvl2=2
CH73 Mmn5@1:g VSS!:16 1.2646e-16 $lvl1=3 $lvl2=2
CH74 non:26 VSS!:24 4.56702e-17 $lvl1=2 $lvl2=2
CH75 non:41 VSS!:22 1.59113e-17 $lvl1=1 $lvl2=2
ReH226 non:38 non:39 0.106618 $metal1  $L=0.145 $W=0.170000 $SI_W=0.17 $TYPE=10 $DIR=1 $LLX=1.525000 $LLY=3.340000 $URX=1.695000 $URY=3.485000 $lvl=1
ReH227 non:39 non:40 0.106434 $metal1  $L=0.1445 $W=0.170000 $SI_W=0.17 $TYPE=10 $DIR=1 $LLX=1.525000 $LLY=3.195500 $URX=1.695000 $URY=3.340000 $lvl=1
ReH228 non:40 non:41 2.098175 $metal1  $L=2.34975 $W=0.140000 $SI_W=0.14 $TYPE=10 $DIR=1 $LLX=1.525000 $LLY=0.845000 $URX=1.665000 $URY=3.195000 $lvl=1
ReH229 non:41 non:42 0.241415 $metal1  $L=0.27025 $W=0.140000 $SI_W=0.14 $TYPE=10 $DIR=0 $LLX=1.325000 $LLY=0.775000 $URX=1.595000 $URY=0.915000 $lvl=1
ReH230 non:42 non:43 0.096048 $metal1  $L=0.1445 $W=0.260000 $SI_W=0.26 $TYPE=10 $DIR=0 $LLX=1.180000 $LLY=0.655000 $URX=1.324500 $URY=0.915000 $lvl=1
ReH231 non:39 non:44 1.250136 $metal1  $L=2.30025 $W=0.230000 $SI_W=0.23 $TYPE=10 $DIR=0 $LLX=1.610000 $LLY=3.225000 $URX=3.910000 $URY=3.455000 $lvl=1
ReH232 non:44 non:45 1.038179 $metal1  $L=1.91025 $W=0.230000 $SI_W=0.23 $TYPE=10 $DIR=1 $LLX=3.795000 $LLY=1.430000 $URX=4.025000 $URY=3.340000 $lvl=1
ReH233 non:45 non:46 0.078804 $metal1  $L=0.145 $W=0.230000 $SI_W=0.23 $TYPE=10 $DIR=1 $LLX=3.795000 $LLY=1.285000 $URX=4.025000 $URY=1.430000 $lvl=1
ReH234 non:43 non:47 0.069712 $metal1  $L=0.145 $W=0.260000 $SI_W=0.26 $TYPE=10 $DIR=0 $LLX=1.035000 $LLY=0.655000 $URX=1.180000 $URY=0.915000 $lvl=1
RfH235 non:26 non:28 28.611765 $li  $L=0.38 $W=0.170000 $SI_W=0.17 $TYPE=10 $DIR=1 $LLX=1.095000 $LLY=0.775000 $URX=1.265000 $URY=1.155000 $lvl=2
RfH236 non:28 non:29 0.376471 $li  $L=0.005 $W=0.170000 $SI_W=0.17 $TYPE=10 $DIR=1 $LLX=1.095000 $LLY=0.770000 $URX=1.265000 $URY=0.775000 $lvl=2
RfH237 non:29 non:30 28.235294 $li  $L=0.375 $W=0.170000 $SI_W=0.17 $TYPE=10 $DIR=1 $LLX=1.095000 $LLY=0.395000 $URX=1.265000 $URY=0.770000 $lvl=2
RfH238 non:31 non:32 30.494116 $li  $L=0.405 $W=0.170000 $SI_W=0.17 $TYPE=10 $DIR=1 $LLX=1.525000 $LLY=3.340000 $URX=1.695000 $URY=3.745000 $lvl=2
RfH239 non:32 non:34 24.470589 $li  $L=0.325 $W=0.170000 $SI_W=0.17 $TYPE=10 $DIR=1 $LLX=1.525000 $LLY=3.015000 $URX=1.695000 $URY=3.340000 $lvl=2
RfH240 non:34 non:35 54.964703 $li  $L=0.73 $W=0.170000 $SI_W=0.17 $TYPE=10 $DIR=1 $LLX=1.525000 $LLY=2.285000 $URX=1.695000 $URY=3.015000 $lvl=2
RfH241 non:36 non:37 4.517647 $li  $L=0.06 $W=0.170000 $SI_W=0.17 $TYPE=10 $DIR=0 $LLX=3.850000 $LLY=1.345000 $URX=3.910000 $URY=1.515000 $lvl=2
RgH242 non:17 non 170.306671 $poly  $L=0.53 $W=0.150000 $SI_W=0.15 $TYPE=10 $DIR=1 $LLX=3.130000 $LLY=0.245000 $URX=3.280000 $URY=0.775000 $lvl=3
RgH243 non non:18 210.553665 $poly  $L=0.65525 $W=0.150000 $SI_W=0.15 $TYPE=10 $DIR=1 $LLX=3.130000 $LLY=0.775000 $URX=3.280000 $URY=1.430000 $lvl=3
RgH244 non:18 non:19 76.762962 $poly  $L=0.43 $W=0.270000 $SI_W=0.27 $TYPE=10 $DIR=0 $LLX=3.205000 $LLY=1.295000 $URX=3.635000 $URY=1.565000 $lvl=3
RgH245 non:19 Mmn5@1:g 191.237961 $poly  $L=0.65525 $W=0.150000 $SI_W=0.15 $TYPE=10 $DIR=1 $LLX=3.560000 $LLY=0.775000 $URX=3.710000 $URY=1.430000 $lvl=3
RgH246 Mmn5@1:g non:20 170.306671 $poly  $L=0.53 $W=0.150000 $SI_W=0.15 $TYPE=10 $DIR=1 $LLX=3.560000 $LLY=0.245000 $URX=3.710000 $URY=0.775000 $lvl=3
RgH247 non:19 non:21 38.336849 $poly  $L=0.21475 $W=0.270000 $SI_W=0.27 $TYPE=10 $DIR=0 $LLX=3.635000 $LLY=1.295000 $URX=3.850000 $URY=1.565000 $lvl=3
RgH248 non:21 non:22 38.426109 $poly  $L=0.21525 $W=0.270000 $SI_W=0.27 $TYPE=10 $DIR=0 $LLX=3.850000 $LLY=1.295000 $URX=4.065000 $URY=1.565000 $lvl=3
RgH249 non:22 Mmn5@2:g 191.237961 $poly  $L=0.65525 $W=0.150000 $SI_W=0.15 $TYPE=10 $DIR=1 $LLX=3.990000 $LLY=0.775000 $URX=4.140000 $URY=1.430000 $lvl=3
RgH250 Mmn5@2:g non:23 170.306671 $poly  $L=0.53 $W=0.150000 $SI_W=0.15 $TYPE=10 $DIR=1 $LLX=3.990000 $LLY=0.245000 $URX=4.140000 $URY=0.775000 $lvl=3
RgH251 non:22 non:24 76.762962 $poly  $L=0.43 $W=0.270000 $SI_W=0.27 $TYPE=10 $DIR=0 $LLX=4.065000 $LLY=1.295000 $URX=4.495000 $URY=1.565000 $lvl=3
RgH252 non:24 Mmn5@3:g 210.553665 $poly  $L=0.65525 $W=0.150000 $SI_W=0.15 $TYPE=10 $DIR=1 $LLX=4.420000 $LLY=0.775000 $URX=4.570000 $URY=1.430000 $lvl=3
RgH253 Mmn5@3:g non:25 170.306671 $poly  $L=0.53 $W=0.150000 $SI_W=0.15 $TYPE=10 $DIR=1 $LLX=4.420000 $LLY=0.245000 $URX=4.570000 $URY=0.775000 $lvl=3
RhH254 Mmn1:d non:28 7.500000 $licon_diff  $A=0.0578 $VC=0 $SAVL=0 $SAVC=0 $SI_A=0.0578 $COVER_DIR=0 $LLX=0.000000 $LLY=0.000000 $URX=-0.057800 $URY=-2.000000 $lvl=5
Rh_2_H255 Mmp2:d non:34 3.750000 $licon_diff  $A=0.1156 $VC=0 $SAVL=0 $SAVC=0 $SI_A=0.1156 $COVER_DIR=0 $LLX=0.000000 $LLY=0.000000 $URX=-0.115600 $URY=-4.000000 $lvl=5
RjH256 non:32 non:39 152.000000 $mcon  $L=0.17 $W=0.17 $A=0.0289 $VC=0 $SAVL=0 $SAVC=0 $SI_A=0.0289 $COVER_DIR=0 $LLX=0.000000 $LLY=0.000000 $URX=0.170000 $URY=0.170000 $lvl=6
RjH257 non:29 non:43 152.000000 $mcon  $L=0.17 $W=0.17 $A=0.0289 $VC=0 $SAVL=0 $SAVC=0 $SI_A=0.0289 $COVER_DIR=0 $LLX=0.000000 $LLY=0.000000 $URX=0.170000 $URY=0.170000 $lvl=6
RjH258 non:36 non:45 152.000000 $mcon  $L=0.17 $W=0.17 $A=0.0289 $VC=0 $SAVL=0 $SAVC=0 $SI_A=0.0289 $COVER_DIR=0 $LLX=0.000000 $LLY=0.000000 $URX=0.170000 $URY=0.170000 $lvl=6
RiH259 non:21 non:37 5.000000 $licon  $A=0.0867 $VC=0 $SAVL=0 $SAVC=0 $SI_A=0.0867 $COVER_DIR=0 $LLX=0.000000 $LLY=0.000000 $URX=-0.086700 $URY=-3.000000 $lvl=7
RmwH260 Mmn2:d Mmn1:d 0.001000 $diff $W=1000000 $SI_W=1000000 $TYPE=1 $DIR=0
RmwH261 Mmn5:g non 0.001000 $poly $W=1000000 $SI_W=1000000 $TYPE=1 $DIR=0
*
*|NET VDD! 4.73359e-15
*|P (VDD! X 0 2.4150 4.1450) // $llx=2.4150 $lly=4.1450 $urx=2.4150 $ury=4.1450 $lvl=1
*|I (Mmp1:s Mmp1 s X 0 0.8895 3.0150) // $llx=0.8895 $lly=3.0150 $urx=0.8895 $ury=3.0150 $lvl=4
*|I (Mmp1:b Mmp1 b X 0 0.9650 3.0150) // $llx=0.9650 $lly=3.0150 $urx=0.9650 $ury=3.0150 $lvl=8
*|I (Mmp5:s Mmp5 s X 0 3.1295 3.0150) // $llx=3.1295 $lly=3.0150 $urx=3.1295 $ury=3.0150 $lvl=4
*|I (Mmp5:b Mmp5 b X 0 3.2050 3.0150) // $llx=3.2050 $lly=3.0150 $urx=3.2050 $ury=3.0150 $lvl=8
*|I (Mmp5@1:s Mmp5@1 s X 0 3.7105 3.0150) // $llx=3.7105 $lly=3.0150 $urx=3.7105 $ury=3.0150 $lvl=4
*|I (Mmp5@1:b Mmp5@1 b X 0 3.6350 3.0150) // $llx=3.6350 $lly=3.0150 $urx=3.6350 $ury=3.0150 $lvl=8
*|I (Mmp5@2:s Mmp5@2 s X 0 3.9895 3.0150) // $llx=3.9895 $lly=3.0150 $urx=3.9895 $ury=3.0150 $lvl=4
*|I (Mmp5@2:b Mmp5@2 b X 0 4.0650 3.0150) // $llx=4.0650 $lly=3.0150 $urx=4.0650 $ury=3.0150 $lvl=8
*|I (Mmp5@3:s Mmp5@3 s X 0 4.5705 3.0150) // $llx=4.5705 $lly=3.0150 $urx=4.5705 $ury=3.0150 $lvl=4
*|I (Mmp5@3:b Mmp5@3 b X 0 4.4950 3.0150) // $llx=4.4950 $lly=3.0150 $urx=4.4950 $ury=3.0150 $lvl=8
*|I (Mmp0:s Mmp0 s X 0 0.5505 3.3550) // $llx=0.5505 $lly=3.3550 $urx=0.5505 $ury=3.3550 $lvl=4
*|I (Mmp0:b Mmp0 b X 0 0.4750 3.3550) // $llx=0.4750 $lly=3.3550 $urx=0.4750 $ury=3.3550 $lvl=8
*|I (Mmp3:s Mmp3 s X 0 2.2695 3.0150) // $llx=2.2695 $lly=3.0150 $urx=2.2695 $ury=3.0150 $lvl=4
*|I (Mmp3:b Mmp3 b X 0 2.3450 3.0150) // $llx=2.3450 $lly=3.0150 $urx=2.3450 $ury=3.0150 $lvl=8
*|I (Mmp2:b Mmp2 b X 0 1.3950 3.0150) // $llx=1.3950 $lly=3.0150 $urx=1.3950 $ury=3.0150 $lvl=8
*|I (Mmp4:s Mmp4 s X 0 2.8505 3.0150) // $llx=2.8505 $lly=3.0150 $urx=2.8505 $ury=3.0150 $lvl=4
*|I (Mmp4:b Mmp4 b X 0 2.7750 3.0150) // $llx=2.7750 $lly=3.0150 $urx=2.7750 $ury=3.0150 $lvl=8
*|S (VDD!:1 0.7500 2.2850) // $llx=0.7500 $lly=2.2850 $urx=0.7500 $ury=2.2850 $lvl=2
*|S (VDD!:3 0.7500 3.0150) // $llx=0.7500 $lly=3.0150 $urx=0.7500 $ury=3.0150 $lvl=2
*|S (VDD!:4 0.7500 4.1400) // $llx=0.7500 $lly=4.1400 $urx=0.7500 $ury=4.1400 $lvl=2
*|S (VDD!:5 0.0000 4.1400) // $llx=0.0000 $lly=4.1400 $urx=0.0000 $ury=4.1400 $lvl=2
*|S (VDD!:6 2.1300 4.1400) // $llx=2.1300 $lly=4.1400 $urx=2.1300 $ury=4.1400 $lvl=2
*|S (VDD!:8 2.1300 3.0150) // $llx=2.1300 $lly=3.0150 $urx=2.1300 $ury=3.0150 $lvl=2
*|S (VDD!:9 2.1300 2.2850) // $llx=2.1300 $lly=2.2850 $urx=2.1300 $ury=2.2850 $lvl=2
*|S (VDD!:10 2.5300 4.1400) // $llx=2.5300 $lly=4.1400 $urx=2.5300 $ury=4.1400 $lvl=2
*|S (VDD!:11 2.5300 4.1400) // $llx=2.5300 $lly=4.1400 $urx=2.5300 $ury=4.1400 $lvl=4
*|S (VDD!:13 2.9900 4.1400) // $llx=2.9900 $lly=4.1400 $urx=2.9900 $ury=4.1400 $lvl=2
*|S (VDD!:15 2.9900 3.0150) // $llx=2.9900 $lly=3.0150 $urx=2.9900 $ury=3.0150 $lvl=2
*|S (VDD!:16 2.9900 2.2850) // $llx=2.9900 $lly=2.2850 $urx=2.9900 $ury=2.2850 $lvl=2
*|S (VDD!:17 3.8500 4.1400) // $llx=3.8500 $lly=4.1400 $urx=3.8500 $ury=4.1400 $lvl=2
*|S (VDD!:19 3.8500 3.0150) // $llx=3.8500 $lly=3.0150 $urx=3.8500 $ury=3.0150 $lvl=2
*|S (VDD!:20 3.8500 2.2850) // $llx=3.8500 $lly=2.2850 $urx=3.8500 $ury=2.2850 $lvl=2
*|S (VDD!:21 4.7100 4.1400) // $llx=4.7100 $lly=4.1400 $urx=4.7100 $ury=4.1400 $lvl=2
*|S (VDD!:23 4.7100 3.0150) // $llx=4.7100 $lly=3.0150 $urx=4.7100 $ury=3.0150 $lvl=2
*|S (VDD!:24 4.7100 2.2850) // $llx=4.7100 $lly=2.2850 $urx=4.7100 $ury=2.2850 $lvl=2
*|S (VDD!:25 5.0595 4.1400) // $llx=5.0595 $lly=4.1400 $urx=5.0595 $ury=4.1400 $lvl=2
*|S (VDD!:26 5.0600 4.1400) // $llx=5.0600 $lly=4.1400 $urx=5.0600 $ury=4.1400 $lvl=1
*|S (VDD!:27 2.5300 4.1400) // $llx=2.5300 $lly=4.1400 $urx=2.5300 $ury=4.1400 $lvl=1
*|S (VDD!:28 0.0000 4.1400) // $llx=0.0000 $lly=4.1400 $urx=0.0000 $ury=4.1400 $lvl=1
CD1 Mmp3:s VSS! 1.03661e-18 $lvl=4
CD2 Mmp5@3:s VSS! 2.93581e-18 $lvl=4
CD3 Mmp5@1:s VSS! 5.09522e-19 $lvl=4
CD4 Mmp5:s VSS! 2.22502e-18 $lvl=4
CD5 Mmp1:s VSS! 3.69017e-18 $lvl=4
CD6 VDD!:27 VSS! 1.95333e-17 $lvl=1
CD7 VDD!:26 VSS! 6.92104e-18 $lvl=1
CD8 VDD!:28 VSS! 6.41322e-18 $lvl=1
CD9 VDD!:3 VSS! 8.70382e-18 $lvl=2
CD10 VDD!:9 VSS! 6.57581e-18 $lvl=2
CD11 VDD!:16 VSS! 8.78991e-18 $lvl=2
CD12 VDD!:20 VSS! 3.56222e-18 $lvl=2
CD13 VDD!:24 VSS! 1.28383e-17 $lvl=2
CD14 VDD!:25 VSS! 1.7027e-18 $lvl=2
CD15 VDD!:21 VSS! 3.88189e-18 $lvl=2
CD16 VDD!:17 VSS! 2.42039e-18 $lvl=2
CD17 VDD!:6 VSS! 3.97472e-18 $lvl=2
CD18 VDD!:4 VSS! 3.24729e-18 $lvl=2
CD19 VDD!:5 VSS! 4.02528e-18 $lvl=2
CD20 VDD!:11 VSS! 3.9906e-18 $lvl=4
CD21 VDD!:10 VSS! 2.98868e-18 $lvl=2
CD22 VDD! VSS! 1.64244e-17 $lvl=1
CD23 VDD!:27 net127 8.93901e-19 $lvl1=1 $lvl2=2
CD24 VDD!:10 net127 6.11152e-19 $lvl1=2 $lvl2=2
CD25 VDD!:27 net127:3 4.10957e-19 $lvl1=1 $lvl2=2
CD26 VDD!:6 net127 3.44828e-19 $lvl1=2 $lvl2=2
CD27 VDD!:10 net127:3 3.26938e-19 $lvl1=2 $lvl2=2
CD28 VDD! net127:3 2.43123e-18 $lvl1=1 $lvl2=2
CD29 VDD!:3 net127:4 8.06031e-18 $lvl1=2 $lvl2=2
CD30 VDD!:3 Mmp1:d 2.10115e-18 $lvl1=2 $lvl2=4
CD31 VDD!:4 Mmp1:d 2.21412e-18 $lvl1=2 $lvl2=4
CD32 VDD!:4 net127:3 2.10235e-18 $lvl1=2 $lvl2=2
CD33 VDD!:4 net127 2.95661e-18 $lvl1=2 $lvl2=2
CD34 VDD!:3 net127 7.135e-18 $lvl1=2 $lvl2=2
CD35 VDD!:3 net127:3 2.77409e-17 $lvl1=2 $lvl2=2
CD36 VDD!:9 Mmp2:d 9.82911e-18 $lvl1=2 $lvl2=4
CD37 VDD!:9 non:40 9.54117e-18 $lvl1=2 $lvl2=1
CD38 VDD! non:38 9.18196e-18 $lvl1=1 $lvl2=1
CD39 VDD!:3 non:31 8.27218e-18 $lvl1=2 $lvl2=2
CD40 VDD! non:31 7.91284e-18 $lvl1=1 $lvl2=2