*
*|DSPF 1.5
*
*|DATE "Wed Jan  8 18:44:03 2025"
*|VENDOR "Cadence Design Systems"
*|PROGRAM "Cadence Quantus Extraction"
*|VERSION "22.1.0-p089 Linux 64 bit - (Thu Jan 19 11:47:08 PST 2023)"
*|DESIGN TBUFX8_HS
*|DIVIDER /
*|DELIMITER :
*|DeviceFingerDelim "@"
*|BUSBIT []
*|GLOBAL_TEMPERATURE 25
*|OPERATING_TEMPERATURE 25

** *VIA_COVERAGE_CODES
** *index FF FS FP FU SF SS SP SU PF PS PP PU UF US UP UU X_by_Y
** * "FF" stands for Full landing and Full coverage
** *0 0 0 0 0 0 0 0 0 0 0 0 0 0 0 0 0
** *1 0 0 0 0 0 0 0 0 0 0 0 0 0 0 0 1 1x1
** *2 0 0 0 0 0 0 0 0 0 0 0 0 0 0 1 0 1x1
** *3 0 0 0 0 0 0 0 0 0 0 0 0 0 1 0 0 1x1
** *4 0 0 0 0 0 0 0 0 0 0 0 0 1 0 0 0 1x1
** *5 0 0 0 0 0 0 0 0 0 0 0 1 0 0 0 0 1x1
** *6 0 0 0 0 0 0 0 0 0 0 1 0 0 0 0 0 1x1
** *7 0 0 0 0 0 0 0 0 0 1 0 0 0 0 0 0 1x1
** *8 0 0 0 0 0 0 0 0 1 0 0 0 0 0 0 0 1x1
** *9 0 0 0 0 0 0 0 1 0 0 0 0 0 0 0 0 1x1
** *10 0 0 0 0 0 0 1 0 0 0 0 0 0 0 0 0 1x1
** *11 0 0 0 0 0 1 0 0 0 0 0 0 0 0 0 0 1x1
** *12 0 0 0 0 1 0 0 0 0 0 0 0 0 0 0 0 1x1
** *13 0 0 0 1 0 0 0 0 0 0 0 0 0 0 0 0 1x1
** *14 0 0 1 0 0 0 0 0 0 0 0 0 0 0 0 0 1x1
** *15 0 1 0 0 0 0 0 0 0 0 0 0 0 0 0 0 1x1
** *16 1 0 0 0 0 0 0 0 0 0 0 0 0 0 0 0 1x1

** *RESISTOR_TYPES
** *1 SHORTING_ELEMENT
** *2 PRES_NG
** *3 PRES_PG
** *4 PRES_NF
** *5 PRES_PF
** *6 TCN_NDIFF
** *7 TCN_PDIFF
** *8 TCN_NFIELD
** *9 TCN_PFIELD
** *10 QUALITY_EXTRACTED
** *11 GCNLAND
** *12 TCNLAND
** *13 DUMMY
** *14 RSD
** *15 BRIDGE

** *RESISTOR_CURRENT_DIRECTION
** *0 HORIZONTAL
** *1 VERTICAL
** *2 45 DEGREE

** QRC_TECH_DIR /vols/wfo_devel/projects/reference_SKY130/tech/sky130_release_0.0.4/quantus/extraction/typical 
** HIERARCHICAL_SPLIT_PINS_DELIMITER '%'
** caps2d version: 10
*
.SUBCKT  TBUFX8_HS A OE Y
*
*Net Section
*
*|GROUND_NET VSS!
*
*LAYER_MAP
*0 none
*1 metal1
*2 li
*3 poly
*4 diff
*5 licon_diff
*6 mcon
*7 licon
*8 FOX

*|NET A 4.05533e-15
*|P (A X 0 1.8550 1.5650) // $llx=1.8550 $lly=1.5650 $urx=1.8550 $ury=1.5650 $lvl=1
*|I (Mmp1@1:g Mmp1@1 g X 0 0.9650 3.0150) // $llx=0.9650 $lly=3.0150 $urx=0.9650 $ury=3.0150 $lvl=3
*|I (Mmp1:g Mmp1 g X 0 1.3950 3.0150) // $llx=1.3950 $lly=3.0150 $urx=1.3950 $ury=3.0150 $lvl=3
*|I (Mmp3@1:g Mmp3@1 g X 0 3.7250 3.0150) // $llx=3.7250 $lly=3.0150 $urx=3.7250 $ury=3.0150 $lvl=3
*|I (Mmp3:g Mmp3 g X 0 4.1550 3.0150) // $llx=4.1550 $lly=3.0150 $urx=4.1550 $ury=3.0150 $lvl=3
*|I (Mmn1@1:g Mmn1@1 g X 0 0.9650 0.7750) // $llx=0.9650 $lly=0.7750 $urx=0.9650 $ury=0.7750 $lvl=3
*|I (Mmn1:g Mmn1 g X 0 1.3950 0.7750) // $llx=1.3950 $lly=0.7750 $urx=1.3950 $ury=0.7750 $lvl=3
*|I (Mmn3:g Mmn3 g X 0 2.6850 0.7750) // $llx=2.6850 $lly=0.7750 $urx=2.6850 $ury=0.7750 $lvl=3
*|I (Mmn3@1:g Mmn3@1 g X 0 3.1150 0.7750) // $llx=3.1150 $lly=0.7750 $urx=3.1150 $ury=0.7750 $lvl=3
*|S (A:29 1.3950 3.8950) // $llx=1.3950 $lly=3.8950 $urx=1.3950 $ury=3.8950 $lvl=3
*|S (A:30 1.3950 1.4300) // $llx=1.3950 $lly=1.4300 $urx=1.3950 $ury=1.4300 $lvl=3
*|S (A:31 1.1650 1.4300) // $llx=1.1650 $lly=1.4300 $urx=1.1650 $ury=1.4300 $lvl=3
*|S (A:32 0.9650 1.4300) // $llx=0.9650 $lly=1.4300 $urx=0.9650 $ury=1.4300 $lvl=3
*|S (A:33 0.9500 1.2650) // $llx=0.9500 $lly=1.2650 $urx=0.9500 $ury=1.2650 $lvl=3
*|S (A:34 1.3950 0.2450) // $llx=1.3950 $lly=0.2450 $urx=1.3950 $ury=0.2450 $lvl=3
*|S (A:35 0.9500 1.5945) // $llx=0.9500 $lly=1.5945 $urx=0.9500 $ury=1.5945 $lvl=3
*|S (A:36 0.9650 3.8950) // $llx=0.9650 $lly=3.8950 $urx=0.9650 $ury=3.8950 $lvl=3
*|S (A:37 0.9650 0.2450) // $llx=0.9650 $lly=0.2450 $urx=0.9650 $ury=0.2450 $lvl=3
*|S (A:38 4.1550 3.8950) // $llx=4.1550 $lly=3.8950 $urx=4.1550 $ury=3.8950 $lvl=3
*|S (A:39 4.1550 2.0650) // $llx=4.1550 $lly=2.0650 $urx=4.1550 $ury=2.0650 $lvl=3
*|S (A:40 3.7250 2.0650) // $llx=3.7250 $lly=2.0650 $urx=3.7250 $ury=2.0650 $lvl=3
*|S (A:41 3.4200 2.0650) // $llx=3.4200 $lly=2.0650 $urx=3.4200 $ury=2.0650 $lvl=3
*|S (A:42 3.4200 1.4300) // $llx=3.4200 $lly=1.4300 $urx=3.4200 $ury=1.4300 $lvl=3
*|S (A:43 3.1150 1.4300) // $llx=3.1150 $lly=1.4300 $urx=3.1150 $ury=1.4300 $lvl=3
*|S (A:44 3.7250 3.8950) // $llx=3.7250 $lly=3.8950 $urx=3.7250 $ury=3.8950 $lvl=3
*|S (A:45 3.1150 0.2450) // $llx=3.1150 $lly=0.2450 $urx=3.1150 $ury=0.2450 $lvl=3
*|S (A:46 2.6850 1.4300) // $llx=2.6850 $lly=1.4300 $urx=2.6850 $ury=1.4300 $lvl=3
*|S (A:47 2.6850 0.2450) // $llx=2.6850 $lly=0.2450 $urx=2.6850 $ury=0.2450 $lvl=3
*|S (A:48 3.4950 1.4300) // $llx=3.4950 $lly=1.4300 $urx=3.4950 $ury=1.4300 $lvl=2
*|S (A:49 3.1150 1.4300) // $llx=3.1150 $lly=1.4300 $urx=3.1150 $ury=1.4300 $lvl=2
*|S (A:50 1.8400 1.4300) // $llx=1.8400 $lly=1.4300 $urx=1.8400 $ury=1.4300 $lvl=2
*|S (A:51 1.1650 1.4300) // $llx=1.1650 $lly=1.4300 $urx=1.1650 $ury=1.4300 $lvl=2
*|S (A:52 0.8300 1.4300) // $llx=0.8300 $lly=1.4300 $urx=0.8300 $ury=1.4300 $lvl=2
*|S (A:53 1.8400 2.0850) // $llx=1.8400 $lly=2.0850 $urx=1.8400 $ury=2.0850 $lvl=1
*|S (A:54 1.8400 1.4300) // $llx=1.8400 $lly=1.4300 $urx=1.8400 $ury=1.4300 $lvl=1
*|S (A:55 1.8400 0.8450) // $llx=1.8400 $lly=0.8450 $urx=1.8400 $ury=0.8450 $lvl=1
CA1 Mmn3@1:g VSS! 4.83441e-18 $lvl=3
CA2 Mmn1@1:g VSS! 4.08808e-18 $lvl=3
CA3 A:53 VSS! 1.93837e-17 $lvl=1
CA4 A:55 VSS! 1.04182e-17 $lvl=1
CA5 A:38 VSS! 4.74927e-18 $lvl=3
CA6 A:44 VSS! 4.49125e-18 $lvl=3
CA7 A:47 VSS! 4.45117e-18 $lvl=3
CA8 A:29 VSS! 4.66253e-18 $lvl=3
CA9 A:36 VSS! 5.15669e-18 $lvl=3
CA10 A:34 VSS! 2.24751e-18 $lvl=3
CA11 A:51 VSS! 8.01491e-18 $lvl=2
CA12 A:49 VSS! 9.94049e-18 $lvl=2
CA13 A:52 VSS! 6.04611e-18 $lvl=2
CA14 A:50 VSS! 1.33073e-17 $lvl=2
CA15 A:31 VSS! 3.31873e-17 $lvl=3
CA16 A:43 VSS! 3.52754e-17 $lvl=3
CA17 A:49 net144:17 5.66733e-18 $lvl1=2 $lvl2=1
CA18 A:43 net144:10 4.34775e-18 $lvl1=3 $lvl2=2
CA19 A:49 net144:2 3.84328e-18 $lvl1=2 $lvl2=2
CA20 A:43 net144:6 3.38838e-18 $lvl1=3 $lvl2=2
CA21 A:49 net144:16 2.75261e-18 $lvl1=2 $lvl2=1
CA22 A:49 net144:6 2.59946e-18 $lvl1=2 $lvl2=2
CA23 A:43 Mmn3:d 2.06644e-18 $lvl1=3 $lvl2=4
CA24 A:43 Mmn4:s 1.29564e-18 $lvl1=3 $lvl2=4
CA25 A:49 net144:10 9.28283e-18 $lvl1=2 $lvl2=2
CA26 A:49 net144 1.76561e-17 $lvl1=2 $lvl2=2
CA27 A:43 net144 1.34631e-17 $lvl1=3 $lvl2=2
CA28 A:47 net144 1.27313e-16 $lvl1=3 $lvl2=2
CA29 Mmn3@1:g net144 1.2921e-16 $lvl1=3 $lvl2=2
CA30 A:44 pon:42 2.52826e-16 $lvl1=3 $lvl2=2
CA31 A:38 pon:42 2.52278e-16 $lvl1=3 $lvl2=2
CA32 A:53 net127:10 1.24174e-18 $lvl1=1 $lvl2=2
CA33 A:31 net127:5 1.13893e-18 $lvl1=3 $lvl2=2
CA34 A:44 net127:11 1.09584e-18 $lvl1=3 $lvl2=2
CA35 A:29 net127:6 9.50187e-19 $lvl1=3 $lvl2=2
CA36 A:31 net127 9.4828e-19 $lvl1=3 $lvl2=2
CA37 A:29 net127:5 8.65364e-19 $lvl1=3 $lvl2=2
CA38 A:29 net127 2.48749e-16 $lvl1=3 $lvl2=2
CA39 A:36 net127 2.50027e-16 $lvl1=3 $lvl2=2
CA40 A:55 non:54 9.18441e-18 $lvl1=1 $lvl2=2
CA41 A:50 non:75 7.86086e-18 $lvl1=2 $lvl2=1
CA42 A:55 non:70 7.25206e-18 $lvl1=1 $lvl2=1
CA43 A:55 non:73 5.10282e-18 $lvl1=1 $lvl2=1
CA44 A:55 non:57 3.05658e-18 $lvl1=1 $lvl2=2
CA45 A:31 Mmn1@1:d 2.72258e-18 $lvl1=3 $lvl2=4
CA46 A:43 non:76 2.02524e-18 $lvl1=3 $lvl2=1
CA47 A:49 non:54 1.67597e-18 $lvl1=2 $lvl2=2
CA48 A:49 non:75 1.15218e-17 $lvl1=2 $lvl2=1
CA49 Mmn1@1:g non:50 1.27805e-16 $lvl1=3 $lvl2=2
CA50 A:55 non:72 3.679e-17 $lvl1=1 $lvl2=1
CA51 A:49 non:76 2.02694e-17 $lvl1=2 $lvl2=1
CA52 A:50 non:54 2.47269e-17 $lvl1=2 $lvl2=2
CA53 A:55 non:75 1.46952e-17 $lvl1=1 $lvl2=1
CA54 A:31 non:50 1.56016e-17 $lvl1=3 $lvl2=2
CA55 A:53 non:75 1.58444e-17 $lvl1=1 $lvl2=1
CA56 A:34 non:50 1.2601e-16 $lvl1=3 $lvl2=2
CA57 A:51 non:50 1.68685e-17 $lvl1=2 $lvl2=2
CA58 A:50 OEb:41 8.33963e-18 $lvl1=2 $lvl2=2
CA59 A:49 OEb:17 8.19174e-18 $lvl1=2 $lvl2=3
CA60 A:50 OEb:49 6.2585e-18 $lvl1=2 $lvl2=1
CA61 A:53 OEb:41 5.78621e-18 $lvl1=1 $lvl2=2
CA62 A:50 OEb:17 5.45267e-18 $lvl1=2 $lvl2=3
CA63 A:53 OEb:40 5.3318e-18 $lvl1=1 $lvl2=2
CA64 A:50 OEb:40 4.80526e-18 $lvl1=2 $lvl2=2
CA65 A:43 OEb:38 3.79282e-18 $lvl1=3 $lvl2=2
CA66 A:50 OEb:38 3.46448e-18 $lvl1=2 $lvl2=2
CA67 A:51 OEb:50 3.33268e-18 $lvl1=2 $lvl2=1
CA68 A:52 OEb:44 3.29935e-18 $lvl1=2 $lvl2=1
CA69 A:50 OEb 2.4497e-18 $lvl1=2 $lvl2=3
CA70 A:49 OEb:40 2.39453e-18 $lvl1=2 $lvl2=2
CA71 A:51 OEb:44 2.2734e-18 $lvl1=2 $lvl2=1
CA72 A:31 OEb 2.02702e-18 $lvl1=3 $lvl2=3
CA73 A:50 OEb:50 1.97151e-18 $lvl1=2 $lvl2=1
CA74 A:50 OEb:26 1.89953e-18 $lvl1=2 $lvl2=3
CA75 A:50 OEb:52 1.73279e-18 $lvl1=2 $lvl2=1
CA76 A:31 OEb:50 1.50708e-18 $lvl1=3 $lvl2=1
CA77 A:52 OEb:49 1.4602e-18 $lvl1=2 $lvl2=1
CA78 A:31 OEb:49 1.40689e-18 $lvl1=3 $lvl2=1
CA79 A:53 OEb:44 1.23554e-18 $lvl1=1 $lvl2=1
CA80 A:31 OEb:44 1.18011e-18 $lvl1=3 $lvl2=1
CA81 A:49 OEb:26 1.09397e-18 $lvl1=2 $lvl2=3
CA82 A:55 OEb:52 1.04482e-18 $lvl1=1 $lvl2=1
CA83 A:51 OEb:41 1.02653e-18 $lvl1=2 $lvl2=2
CA84 A:49 OEb:52 1.01528e-18 $lvl1=2 $lvl2=1
CA85 A:31 OEb:41 9.49667e-19 $lvl1=3 $lvl2=2
CA86 A:43 OEb:26 8.12461e-19 $lvl1=3 $lvl2=3
CA87 A:51 OEb:49 1.5216e-17 $lvl1=2 $lvl2=1
CA88 A:53 OEb:50 5.08802e-17 $lvl1=1 $lvl2=1
CA89 A:49 OEb:38 1.16199e-17 $lvl1=2 $lvl2=2
CA90 A:53 OEb:51 1.05914e-17 $lvl1=1 $lvl2=1
CA91 A:55 OEb:49 4.45272e-17 $lvl1=1 $lvl2=1
CA92 A:53 OEb:52 5.24501e-17 $lvl1=1 $lvl2=1
CA93 A:43 OEb:17 1.01121e-17 $lvl1=3 $lvl2=3
CA94 A:53 OEb:49 4.03891e-17 $lvl1=1 $lvl2=1
CA95 A:31 VSS!:43 9.83944e-18 $lvl1=3 $lvl2=2
CA96 A:47 VSS!:15 8.97395e-18 $lvl1=3 $lvl2=2
CA97 A:51 VSS!:40 8.66227e-18 $lvl1=2 $lvl2=2
CA98 A:34 VSS!:16 8.48861e-18 $lvl1=3 $lvl2=2
CA99 A:55 VSS!:40 7.85107e-18 $lvl1=1 $lvl2=2
CA100 Mmn3@1:g VSS!:14 7.64681e-18 $lvl1=3 $lvl2=2
CA101 A:50 VSS!:37 7.54949e-18 $lvl1=2 $lvl2=2
CA102 A:52 VSS!:43 7.50813e-18 $lvl1=2 $lvl2=2
CA103 Mmn1@1:g VSS!:17 7.4246e-18 $lvl1=3 $lvl2=2
CA104 A:31 VSS!:40 6.62783e-18 $lvl1=3 $lvl2=2
CA105 A:51 VSS!:43 4.69844e-18 $lvl1=2 $lvl2=2
CA106 A:43 VSS!:37 3.39519e-18 $lvl1=3 $lvl2=2
CA107 A:43 Mmn3@1:s 3.03355e-18 $lvl1=3 $lvl2=4
CA108 A:49 VSS!:37 1.59189e-17 $lvl1=2 $lvl2=2
CA109 A:43 VSS!:34 1.66676e-17 $lvl1=3 $lvl2=2
CA110 A:34 VSS!:40 1.29965e-16 $lvl1=3 $lvl2=2
CA111 A:50 VSS!:40 1.55274e-17 $lvl1=2 $lvl2=2
CA112 A:49 VSS!:34 1.56328e-17 $lvl1=2 $lvl2=2
CA113 A:47 VSS!:37 1.28176e-16 $lvl1=3 $lvl2=2
CA114 Mmn1@1:g VSS!:43 1.24669e-16 $lvl1=3 $lvl2=2
CA115 Mmn3@1:g VSS!:34 1.29981e-16 $lvl1=3 $lvl2=2
CA116 A:38 VDD!:10 9.24953e-18 $lvl1=3 $lvl2=2
CA117 A:44 VDD!:10 8.05462e-18 $lvl1=3 $lvl2=2
CA118 A:29 VDD!:6 6.9364e-18 $lvl1=3 $lvl2=2
CA119 A:36 VDD!:4 5.19079e-18 $lvl1=3 $lvl2=2
CA120 A:53 VDD! 4.29015e-18 $lvl1=1 $lvl2=1
CA121 A:53 VDD!:9 3.27568e-18 $lvl1=1 $lvl2=2
CA122 A:55 VDD! 3.05105e-18 $lvl1=1 $lvl2=1
CA123 A:31 VDD! 2.66466e-18 $lvl1=3 $lvl2=1
CA124 A:43 VDD! 1.89015e-18 $lvl1=3 $lvl2=1
CA125 A:36 VDD!:3 2.5209e-16 $lvl1=3 $lvl2=2
CA126 A:44 VDD!:13 2.55686e-16 $lvl1=3 $lvl2=2
CA127 A:29 VDD!:9 2.53997e-16 $lvl1=3 $lvl2=2
CA128 A:38 VDD!:20 2.48695e-16 $lvl1=3 $lvl2=2
CA129 A:31 OE:41 6.7405e-18 $lvl1=3 $lvl2=2
CA130 A:52 OE:41 5.91808e-18 $lvl1=2 $lvl2=2
CA131 A:49 OE:47 5.65801e-18 $lvl1=2 $lvl2=1
CA132 A:51 OE:41 5.07784e-18 $lvl1=2 $lvl2=2
CA133 A:49 OE:46 5.0005e-18 $lvl1=2 $lvl2=2
CA134 A:43 OE:46 4.33997e-18 $lvl1=3 $lvl2=2
CA135 A:31 OE:23 3.8429e-18 $lvl1=3 $lvl2=3
CA136 A:51 OE:54 3.33556e-18 $lvl1=2 $lvl2=1
CA137 A:38 OE:28 2.682e-18 $lvl1=3 $lvl2=3
CA138 A:49 OE:45 2.41023e-18 $lvl1=2 $lvl2=2
CA139 A:44 OE:46 2.32982e-18 $lvl1=3 $lvl2=2
CA140 A:51 OE:42 2.31917e-18 $lvl1=2 $lvl2=2
CA141 A:53 OE:54 2.11125e-18 $lvl1=1 $lvl2=1
CA142 A:36 OE:23 1.79574e-18 $lvl1=3 $lvl2=3
CA143 A:52 OE:54 1.45754e-18 $lvl1=2 $lvl2=1
CA144 A:38 OE:46 1.34909e-18 $lvl1=3 $lvl2=2
CA145 A:31 OE:42 1.03488e-18 $lvl1=3 $lvl2=2
CA146 A:52 OE:23 1.01919e-18 $lvl1=2 $lvl2=3
ReA1 A:53 A 0.250000 $metal1  $L=0.52 $W=0.260000 $SI_W=0.26 $TYPE=10 $DIR=1 $LLX=1.710000 $LLY=1.565000 $URX=1.970000 $URY=2.085000 $lvl=1
ReA2 A A:54 0.064904 $metal1  $L=0.135 $W=0.260000 $SI_W=0.26 $TYPE=10 $DIR=1 $LLX=1.725000 $LLY=1.430000 $URX=1.985000 $URY=1.565000 $lvl=1
ReA3 A:54 A:55 0.281250 $metal1  $L=0.585 $W=0.260000 $SI_W=0.26 $TYPE=10 $DIR=1 $LLX=1.710000 $LLY=0.845000 $URX=1.970000 $URY=1.430000 $lvl=1
RfA4 A:48 A:49 28.611765 $li  $L=0.38 $W=0.170000 $SI_W=0.17 $TYPE=10 $DIR=0 $LLX=3.115000 $LLY=1.345000 $URX=3.495000 $URY=1.515000 $lvl=2
RfA5 A:49 A:50 96.000000 $li  $L=1.275 $W=0.170000 $SI_W=0.17 $TYPE=10 $DIR=0 $LLX=1.840000 $LLY=1.345000 $URX=3.115000 $URY=1.515000 $lvl=2
RfA6 A:50 A:51 50.823528 $li  $L=0.675 $W=0.170000 $SI_W=0.17 $TYPE=10 $DIR=0 $LLX=1.165000 $LLY=1.345000 $URX=1.840000 $URY=1.515000 $lvl=2
RfA7 A:51 A:52 25.223530 $li  $L=0.335 $W=0.170000 $SI_W=0.17 $TYPE=10 $DIR=0 $LLX=0.830000 $LLY=1.345000 $URX=1.165000 $URY=1.515000 $lvl=2
RgA8 A:29 Mmp1:g 282.773346 $poly  $L=0.88 $W=0.150000 $SI_W=0.15 $TYPE=10 $DIR=1 $LLX=1.320000 $LLY=3.015000 $URX=1.470000 $URY=3.895000 $lvl=3
RgA9 Mmp1:g A:30 509.233002 $poly  $L=1.58475 $W=0.150000 $SI_W=0.15 $TYPE=10 $DIR=1 $LLX=1.320000 $LLY=1.430000 $URX=1.470000 $URY=3.015000 $lvl=3
RgA10 A:30 A:31 33.630455 $poly  $L=0.23025 $W=0.330000 $SI_W=0.33 $TYPE=10 $DIR=0 $LLX=1.165000 $LLY=1.265000 $URX=1.395000 $URY=1.595000 $lvl=3
RgA11 A:31 A:32 29.175608 $poly  $L=0.19975 $W=0.330000 $SI_W=0.33 $TYPE=10 $DIR=0 $LLX=0.965000 $LLY=1.265000 $URX=1.165000 $URY=1.595000 $lvl=3
RgA12 A:32 A:33 44.187447 $poly  $L=0.16475 $W=0.180000 $SI_W=0.18 $TYPE=10 $DIR=1 $LLX=0.860000 $LLY=1.265000 $URX=1.040000 $URY=1.430000 $lvl=3
RgA13 A:33 Mmn1@1:g 157.520279 $poly  $L=0.49 $W=0.150000 $SI_W=0.15 $TYPE=10 $DIR=1 $LLX=0.890000 $LLY=0.775000 $URX=1.040000 $URY=1.265000 $lvl=3
RgA14 A:30 Mmn1:g 210.553665 $poly  $L=0.65525 $W=0.150000 $SI_W=0.15 $TYPE=10 $DIR=1 $LLX=1.320000 $LLY=0.775000 $URX=1.470000 $URY=1.430000 $lvl=3
RgA15 Mmn1:g A:34 170.306671 $poly  $L=0.53 $W=0.150000 $SI_W=0.15 $TYPE=10 $DIR=1 $LLX=1.320000 $LLY=0.245000 $URX=1.470000 $URY=0.775000 $lvl=3
RgA16 A:32 A:35 44.053562 $poly  $L=0.16425 $W=0.180000 $SI_W=0.18 $TYPE=10 $DIR=1 $LLX=0.860000 $LLY=1.430500 $URX=1.040000 $URY=1.594500 $lvl=3
RgA17 A:35 Mmp1@1:g 456.360291 $poly  $L=1.42 $W=0.150000 $SI_W=0.15 $TYPE=10 $DIR=1 $LLX=0.890000 $LLY=1.594500 $URX=1.040000 $URY=3.014500 $lvl=3
RgA18 Mmp1@1:g A:36 282.773346 $poly  $L=0.88 $W=0.150000 $SI_W=0.15 $TYPE=10 $DIR=1 $LLX=0.890000 $LLY=3.015000 $URX=1.040000 $URY=3.895000 $lvl=3
RgA19 Mmn1@1:g A:37 170.306671 $poly  $L=0.53 $W=0.150000 $SI_W=0.15 $TYPE=10 $DIR=1 $LLX=0.890000 $LLY=0.245000 $URX=1.040000 $URY=0.775000 $lvl=3
RgA20 A:38 Mmp3:g 282.773346 $poly  $L=0.88 $W=0.150000 $SI_W=0.15 $TYPE=10 $DIR=1 $LLX=4.080000 $LLY=3.015000 $URX=4.230000 $URY=3.895000 $lvl=3
RgA21 Mmp3:g A:39 305.186340 $poly  $L=0.94975 $W=0.150000 $SI_W=0.15 $TYPE=10 $DIR=1 $LLX=4.080000 $LLY=2.065000 $URX=4.230000 $URY=3.015000 $lvl=3
RgA22 A:39 A:40 138.173340 $poly  $L=0.43 $W=0.150000 $SI_W=0.15 $TYPE=10 $DIR=0 $LLX=3.725000 $LLY=1.990000 $URX=4.155000 $URY=2.140000 $lvl=3
RgA23 A:40 A:41 98.006668 $poly  $L=0.305 $W=0.150000 $SI_W=0.15 $TYPE=10 $DIR=0 $LLX=3.420000 $LLY=1.990000 $URX=3.725000 $URY=2.140000 $lvl=3
RgA24 A:41 A:42 204.046661 $poly  $L=0.635 $W=0.150000 $SI_W=0.15 $TYPE=10 $DIR=1 $LLX=3.345000 $LLY=1.430000 $URX=3.495000 $URY=2.065000 $lvl=3
RgA25 A:42 A:43 54.492783 $poly  $L=0.30525 $W=0.270000 $SI_W=0.27 $TYPE=10 $DIR=0 $LLX=3.115000 $LLY=1.295000 $URX=3.420000 $URY=1.565000 $lvl=3
RgA26 A:40 Mmp3@1:g 305.186340 $poly  $L=0.94975 $W=0.150000 $SI_W=0.15 $TYPE=10 $DIR=1 $LLX=3.650000 $LLY=2.065000 $URX=3.800000 $URY=3.015000 $lvl=3
RgA27 Mmp3@1:g A:44 282.773346 $poly  $L=0.88 $W=0.150000 $SI_W=0.15 $TYPE=10 $DIR=1 $LLX=3.650000 $LLY=3.015000 $URX=3.800000 $URY=3.895000 $lvl=3
RgA28 A:43 Mmn3@1:g 191.193329 $poly  $L=0.655 $W=0.150000 $SI_W=0.15 $TYPE=10 $DIR=1 $LLX=3.040000 $LLY=0.775000 $URX=3.190000 $URY=1.430000 $lvl=3
RgA29 Mmn3@1:g A:45 170.306671 $poly  $L=0.53 $W=0.150000 $SI_W=0.15 $TYPE=10 $DIR=1 $LLX=3.040000 $LLY=0.245000 $URX=3.190000 $URY=0.775000 $lvl=3
RgA30 A:43 A:46 76.718338 $poly  $L=0.42975 $W=0.270000 $SI_W=0.27 $TYPE=10 $DIR=0 $LLX=2.685000 $LLY=1.295000 $URX=3.115000 $URY=1.565000 $lvl=3
RgA31 A:46 Mmn3:g 210.553665 $poly  $L=0.65525 $W=0.150000 $SI_W=0.15 $TYPE=10 $DIR=1 $LLX=2.610000 $LLY=0.775000 $URX=2.760000 $URY=1.430000 $lvl=3
RgA32 Mmn3:g A:47 170.306671 $poly  $L=0.53 $W=0.150000 $SI_W=0.15 $TYPE=10 $DIR=1 $LLX=2.610000 $LLY=0.245000 $URX=2.760000 $URY=0.775000 $lvl=3
RjA33 A:50 A:54 152.000000 $mcon  $L=0.17 $W=0.17 $A=0.0289 $VC=0 $SAVL=0 $SAVC=0 $SI_A=0.0289 $COVER_DIR=0 $LLX=0.000000 $LLY=0.000000 $URX=0.170000 $URY=0.170000 $lvl=6
RiA34 A:43 A:49 7.500000 $licon  $A=0.0578 $VC=0 $SAVL=0 $SAVC=0 $SI_A=0.0578 $COVER_DIR=0 $LLX=0.000000 $LLY=0.000000 $URX=-0.057800 $URY=-2.000000 $lvl=7
RiA35 A:31 A:51 7.500000 $licon  $A=0.0578 $VC=0 $SAVL=0 $SAVC=0 $SI_A=0.0578 $COVER_DIR=0 $LLX=0.000000 $LLY=0.000000 $URX=-0.057800 $URY=-2.000000 $lvl=7
*
*|NET Y 6.5356e-15
*|P (Y X 0 8.2950 1.4950) // $llx=8.2950 $lly=1.4950 $urx=8.2950 $ury=1.4950 $lvl=1
*|I (Mmp5@2:d Mmp5@2 d X 0 5.5205 3.0150) // $llx=5.5205 $lly=3.0150 $urx=5.5205 $ury=3.0150 $lvl=4
*|I (Mmp5@5:d Mmp5@5 d X 0 5.7995 3.0150) // $llx=5.7995 $lly=3.0150 $urx=5.7995 $ury=3.0150 $lvl=4
*|I (Mmp5@1:d Mmp5@1 d X 0 6.3805 3.0150) // $llx=6.3805 $lly=3.0150 $urx=6.3805 $ury=3.0150 $lvl=4
*|I (Mmp5@3:d Mmp5@3 d X 0 6.6595 3.0150) // $llx=6.6595 $lly=3.0150 $urx=6.6595 $ury=3.0150 $lvl=4
*|I (Mmp5@4:d Mmp5@4 d X 0 7.2405 3.0150) // $llx=7.2405 $lly=3.0150 $urx=7.2405 $ury=3.0150 $lvl=4
*|I (Mmp5@6:d Mmp5@6 d X 0 7.5195 3.0150) // $llx=7.5195 $lly=3.0150 $urx=7.5195 $ury=3.0150 $lvl=4
*|I (Mmp5:d Mmp5 d X 0 8.1005 3.0150) // $llx=8.1005 $lly=3.0150 $urx=8.1005 $ury=3.0150 $lvl=4
*|I (Mmp5@7:d Mmp5@7 d X 0 8.3795 3.0150) // $llx=8.3795 $lly=3.0150 $urx=8.3795 $ury=3.0150 $lvl=4
*|I (Mmn5:d Mmn5 d X 0 5.5205 0.7750) // $llx=5.5205 $lly=0.7750 $urx=5.5205 $ury=0.7750 $lvl=4
*|I (Mmn5@6:d Mmn5@6 d X 0 5.7995 0.7750) // $llx=5.7995 $lly=0.7750 $urx=5.7995 $ury=0.7750 $lvl=4
*|I (Mmn5@3:d Mmn5@3 d X 0 6.3805 0.7750) // $llx=6.3805 $lly=0.7750 $urx=6.3805 $ury=0.7750 $lvl=4
*|I (Mmn5@4:d Mmn5@4 d X 0 6.6595 0.7750) // $llx=6.6595 $lly=0.7750 $urx=6.6595 $ury=0.7750 $lvl=4
*|I (Mmn5@5:d Mmn5@5 d X 0 7.2405 0.7750) // $llx=7.2405 $lly=0.7750 $urx=7.2405 $ury=0.7750 $lvl=4
*|I (Mmn5@2:d Mmn5@2 d X 0 7.5195 0.7750) // $llx=7.5195 $lly=0.7750 $urx=7.5195 $ury=0.7750 $lvl=4
*|I (Mmn5@1:d Mmn5@1 d X 0 8.1005 0.7750) // $llx=8.1005 $lly=0.7750 $urx=8.1005 $ury=0.7750 $lvl=4
*|I (Mmn5@7:d Mmn5@7 d X 0 8.3795 0.7750) // $llx=8.3795 $lly=0.7750 $urx=8.3795 $ury=0.7750 $lvl=4
*|S (Y:1 5.6600 3.7450) // $llx=5.6600 $lly=3.7450 $urx=5.6600 $ury=3.7450 $lvl=2
*|S (Y:3 5.6600 3.0150) // $llx=5.6600 $lly=3.0150 $urx=5.6600 $ury=3.0150 $lvl=2
*|S (Y:4 5.6600 2.5700) // $llx=5.6600 $lly=2.5700 $urx=5.6600 $ury=2.5700 $lvl=2
*|S (Y:5 5.6600 1.1550) // $llx=5.6600 $lly=1.1550 $urx=5.6600 $ury=1.1550 $lvl=2
*|S (Y:6 5.6600 0.8100) // $llx=5.6600 $lly=0.8100 $urx=5.6600 $ury=0.8100 $lvl=2
*|S (Y:8 5.6600 0.7750) // $llx=5.6600 $lly=0.7750 $urx=5.6600 $ury=0.7750 $lvl=2
*|S (Y:9 5.6600 0.3950) // $llx=5.6600 $lly=0.3950 $urx=5.6600 $ury=0.3950 $lvl=2
*|S (Y:10 6.5200 3.7450) // $llx=6.5200 $lly=3.7450 $urx=6.5200 $ury=3.7450 $lvl=2
*|S (Y:12 6.5200 3.0150) // $llx=6.5200 $lly=3.0150 $urx=6.5200 $ury=3.0150 $lvl=2
*|S (Y:13 6.5200 2.7500) // $llx=6.5200 $lly=2.7500 $urx=6.5200 $ury=2.7500 $lvl=2
*|S (Y:14 6.5200 1.1550) // $llx=6.5200 $lly=1.1550 $urx=6.5200 $ury=1.1550 $lvl=2
*|S (Y:15 6.5200 0.8100) // $llx=6.5200 $lly=0.8100 $urx=6.5200 $ury=0.8100 $lvl=2
*|S (Y:17 6.5200 0.7750) // $llx=6.5200 $lly=0.7750 $urx=6.5200 $ury=0.7750 $lvl=2
*|S (Y:18 6.5200 0.3950) // $llx=6.5200 $lly=0.3950 $urx=6.5200 $ury=0.3950 $lvl=2
*|S (Y:19 7.3800 3.7450) // $llx=7.3800 $lly=3.7450 $urx=7.3800 $ury=3.7450 $lvl=2
*|S (Y:21 7.3800 3.0150) // $llx=7.3800 $lly=3.0150 $urx=7.3800 $ury=3.0150 $lvl=2
*|S (Y:22 7.3800 2.7500) // $llx=7.3800 $lly=2.7500 $urx=7.3800 $ury=2.7500 $lvl=2
*|S (Y:23 7.3800 1.1550) // $llx=7.3800 $lly=1.1550 $urx=7.3800 $ury=1.1550 $lvl=2
*|S (Y:24 7.3800 0.8100) // $llx=7.3800 $lly=0.8100 $urx=7.3800 $ury=0.8100 $lvl=2
*|S (Y:26 7.3800 0.7750) // $llx=7.3800 $lly=0.7750 $urx=7.3800 $ury=0.7750 $lvl=2
*|S (Y:27 7.3800 0.3950) // $llx=7.3800 $lly=0.3950 $urx=7.3800 $ury=0.3950 $lvl=2
*|S (Y:28 8.2400 3.7450) // $llx=8.2400 $lly=3.7450 $urx=8.2400 $ury=3.7450 $lvl=2
*|S (Y:30 8.2400 3.0150) // $llx=8.2400 $lly=3.0150 $urx=8.2400 $ury=3.0150 $lvl=2
*|S (Y:31 8.2400 2.7500) // $llx=8.2400 $lly=2.7500 $urx=8.2400 $ury=2.7500 $lvl=2
*|S (Y:32 8.2400 1.1550) // $llx=8.2400 $lly=1.1550 $urx=8.2400 $ury=1.1550 $lvl=2
*|S (Y:33 8.2400 0.8100) // $llx=8.2400 $lly=0.8100 $urx=8.2400 $ury=0.8100 $lvl=2
*|S (Y:35 8.2400 0.7750) // $llx=8.2400 $lly=0.7750 $urx=8.2400 $ury=0.7750 $lvl=2
*|S (Y:36 8.2400 0.3950) // $llx=8.2400 $lly=0.3950 $urx=8.2400 $ury=0.3950 $lvl=2
*|S (Y:37 8.2675 3.2550) // $llx=8.2675 $lly=3.2550 $urx=8.2675 $ury=3.2550 $lvl=1
*|S (Y:38 8.2400 2.7500) // $llx=8.2400 $lly=2.7500 $urx=8.2400 $ury=2.7500 $lvl=1
*|S (Y:39 7.3800 1.5000) // $llx=7.3800 $lly=1.5000 $urx=7.3800 $ury=1.5000 $lvl=1
*|S (Y:40 6.5200 1.5000) // $llx=6.5200 $lly=1.5000 $urx=6.5200 $ury=1.5000 $lvl=1
*|S (Y:41 5.6600 1.5000) // $llx=5.6600 $lly=1.5000 $urx=5.6600 $ury=1.5000 $lvl=1
*|S (Y:42 5.6600 0.8100) // $llx=5.6600 $lly=0.8100 $urx=5.6600 $ury=0.8100 $lvl=1
*|S (Y:43 8.2400 0.8100) // $llx=8.2400 $lly=0.8100 $urx=8.2400 $ury=0.8100 $lvl=1
*|S (Y:44 8.2675 0.4850) // $llx=8.2675 $lly=0.4850 $urx=8.2675 $ury=0.4850 $lvl=1
*|S (Y:45 7.3800 0.8100) // $llx=7.3800 $lly=0.8100 $urx=7.3800 $ury=0.8100 $lvl=1
*|S (Y:46 7.3800 0.4850) // $llx=7.3800 $lly=0.4850 $urx=7.3800 $ury=0.4850 $lvl=1
*|S (Y:47 7.3800 2.7500) // $llx=7.3800 $lly=2.7500 $urx=7.3800 $ury=2.7500 $lvl=1
*|S (Y:48 7.3800 3.2550) // $llx=7.3800 $lly=3.2550 $urx=7.3800 $ury=3.2550 $lvl=1
*|S (Y:49 6.5200 0.8100) // $llx=6.5200 $lly=0.8100 $urx=6.5200 $ury=0.8100 $lvl=1
*|S (Y:50 6.5200 0.4850) // $llx=6.5200 $lly=0.4850 $urx=6.5200 $ury=0.4850 $lvl=1
*|S (Y:51 6.5200 2.7500) // $llx=6.5200 $lly=2.7500 $urx=6.5200 $ury=2.7500 $lvl=1
*|S (Y:52 6.5200 3.2550) // $llx=6.5200 $lly=3.2550 $urx=6.5200 $ury=3.2550 $lvl=1
*|S (Y:53 5.6600 2.5700) // $llx=5.6600 $lly=2.5700 $urx=5.6600 $ury=2.5700 $lvl=1
*|S (Y:54 5.6600 2.8950) // $llx=5.6600 $lly=2.8950 $urx=5.6600 $ury=2.8950 $lvl=1
*|S (Y:55 5.6600 0.4850) // $llx=5.6600 $lly=0.4850 $urx=5.6600 $ury=0.4850 $lvl=1
CC1 Mmn5@1:d VSS! 6.51427e-19 $lvl=4
CC2 Mmn5@5:d VSS! 1.36222e-19 $lvl=4
CC3 Mmn5@3:d VSS! 6.24686e-19 $lvl=4
CC4 Mmn5:d VSS! 6.2576e-19 $lvl=4
CC5 Mmp5:d VSS! 1.7372e-18 $lvl=4
CC6 Mmp5@4:d VSS! 9.10609e-19 $lvl=4
CC7 Mmp5@1:d VSS! 1.70495e-18 $lvl=4
CC8 Mmp5@2:d VSS! 5.28275e-19 $lvl=4
CC9 Y:51 VSS! 7.20199e-18 $lvl=1
CC10 Y:49 VSS! 6.52584e-18 $lvl=1
CC11 Y:47 VSS! 9.44816e-18 $lvl=1
CC12 Y:45 VSS! 5.50255e-18 $lvl=1
CC13 Y:43 VSS! 7.6239e-18 $lvl=1
CC14 Y:42 VSS! 8.35625e-18 $lvl=1
CC15 Y:38 VSS! 9.84624e-18 $lvl=1
CC16 Y:37 VSS! 3.49924e-18 $lvl=1
CC17 Y:54 VSS! 1.25743e-17 $lvl=1
CC18 Y:55 VSS! 2.79422e-18 $lvl=1
CC19 Y:39 VSS! 6.90426e-18 $lvl=1
CC20 Y:40 VSS! 5.99321e-18 $lvl=1
CC21 Y:41 VSS! 1.01964e-17 $lvl=1
CC22 Y:35 VSS! 8.89221e-18 $lvl=2
CC23 Y:36 VSS! 1.69794e-18 $lvl=2
CC24 Y:23 VSS! 7.35243e-18 $lvl=2
CC25 Y:27 VSS! 2.23306e-18 $lvl=2
CC26 Y:19 VSS! 2.06143e-18 $lvl=2
CC27 Y:14 VSS! 9.01047e-18 $lvl=2
CC28 Y:18 VSS! 1.52374e-18 $lvl=2
CC29 Y:10 VSS! 2.86643e-18 $lvl=2
CC30 Y:5 VSS! 3.74573e-18 $lvl=2
CC31 Y:9 VSS! 2.33517e-18 $lvl=2
CC32 Y:1 VSS! 8.36586e-18 $lvl=2
CC33 Y:6 VSS! 2.65941e-18 $lvl=2
CC34 Y:4 VSS! 3.36315e-18 $lvl=2
CC35 Y:15 VSS! 1.25532e-18 $lvl=2
CC36 Y:13 VSS! 1.0678e-18 $lvl=2
CC37 Y:24 VSS! 1.8947e-18 $lvl=2
CC38 Y:22 VSS! 2.56395e-18 $lvl=2
CC39 Y:33 VSS! 1.93979e-18 $lvl=2
CC40 Y:31 VSS! 3.72734e-18 $lvl=2
CC41 Y VSS! 5.91364e-18 $lvl=1
CC42 Y:41 pon:64 9.20935e-18 $lvl1=1 $lvl2=1
CC43 Y:51 pon:57 8.29499e-18 $lvl1=1 $lvl2=2
CC44 Y:13 pon:60 7.36867e-18 $lvl1=2 $lvl2=1
CC45 Y:41 pon:57 7.02082e-18 $lvl1=1 $lvl2=2
CC46 Y:22 pon:57 6.01742e-18 $lvl1=2 $lvl2=2
CC47 Y:54 pon:57 5.84826e-18 $lvl1=1 $lvl2=2
CC48 Y:4 pon:60 4.96216e-18 $lvl1=2 $lvl2=1
CC49 Y:13 pon:57 4.8897e-18 $lvl1=2 $lvl2=2
CC50 Y:1 pon:64 4.73457e-18 $lvl1=2 $lvl2=1
CC51 Y:10 pon:60 4.31782e-18 $lvl1=2 $lvl2=1
CC52 Y:13 pon:58 3.87497e-18 $lvl1=2 $lvl2=1
CC53 Y:4 pon:58 3.5478e-18 $lvl1=2 $lvl2=1
CC54 Y:4 pon:57 3.49442e-18 $lvl1=2 $lvl2=2
CC55 Y:41 pon:56 3.40693e-18 $lvl1=1 $lvl2=2
CC56 Y:40 pon:56 3.22884e-18 $lvl1=1 $lvl2=2
CC57 Y:40 pon:30 3.19221e-18 $lvl1=1 $lvl2=3
CC58 Y:4 pon:64 2.59284e-18 $lvl1=2 $lvl2=1
CC59 Y:42 pon:64 2.55892e-18 $lvl1=1 $lvl2=1
CC60 Mmp5@4:d pon:30 2.48806e-18 $lvl1=4 $lvl2=3
CC61 Mmp5@2:d pon:30 2.37592e-18 $lvl1=4 $lvl2=3
CC62 Mmp5@1:d pon:30 2.36687e-18 $lvl1=4 $lvl2=3
CC63 Y:51 pon:64 2.21636e-18 $lvl1=1 $lvl2=1
CC64 Y:47 pon:60 2.05234e-18 $lvl1=1 $lvl2=1
CC65 Y:51 pon:56 1.97827e-18 $lvl1=1 $lvl2=2
CC66 Y pon:30 1.91341e-18 $lvl1=1 $lvl2=3
CC67 Y:54 pon:56 1.81059e-18 $lvl1=1 $lvl2=2
CC68 Y:54 pon:55 1.57588e-18 $lvl1=1 $lvl2=2
CC69 Y:47 pon:58 1.47625e-18 $lvl1=1 $lvl2=1
CC70 Y:41 pon:30 1.29381e-18 $lvl1=1 $lvl2=3
CC71 Y:49 pon:64 1.17233e-18 $lvl1=1 $lvl2=1
CC72 Y:1 pon:56 1.1679e-18 $lvl1=2 $lvl2=2
CC73 Y:4 pon:56 1.158e-18 $lvl1=2 $lvl2=2
CC74 Y:10 pon:58 1.14869e-18 $lvl1=2 $lvl2=1
CC75 Y:47 pon:30 1.10477e-18 $lvl1=1 $lvl2=3
CC76 Y:10 pon:56 1.10376e-18 $lvl1=2 $lvl2=2
CC77 Y:47 pon:64 1.02248e-18 $lvl1=1 $lvl2=1
CC78 Y:13 pon:56 1.00549e-18 $lvl1=2 $lvl2=2
CC79 Y:13 pon:30 9.93741e-19 $lvl1=2 $lvl2=3
CC80 Y:51 pon:30 9.91379e-19 $lvl1=1 $lvl2=3
CC81 Y:10 pon:57 1.55007e-17 $lvl1=2 $lvl2=2
CC82 Y:1 pon:30 1.22476e-17 $lvl1=2 $lvl2=3
CC83 Y:1 pon:40 2.47082e-16 $lvl1=2 $lvl2=3
CC84 Y:47 pon:57 1.34733e-17 $lvl1=1 $lvl2=2
CC85 Y:19 pon:37 2.53177e-16 $lvl1=2 $lvl2=3
CC86 Y:51 pon:60 6.86118e-17 $lvl1=1 $lvl2=1
CC87 Y:31 pon:57 1.94171e-17 $lvl1=2 $lvl2=2
CC88 Y:38 pon:57 1.01771e-17 $lvl1=1 $lvl2=2
CC89 Y:31 pon:25 2.47851e-16 $lvl1=2 $lvl2=3
CC90 Y:19 pon:57 1.73896e-17 $lvl1=2 $lvl2=2
CC91 Y:10 pon:30 1.18483e-17 $lvl1=2 $lvl2=3
CC92 Y:1 pon:60 2.06632e-17 $lvl1=2 $lvl2=1
CC93 Y:31 pon:30 1.18035e-17 $lvl1=2 $lvl2=3
CC94 Y:54 pon:58 5.93083e-17 $lvl1=1 $lvl2=1
CC95 Y:54 pon:64 3.0511e-17 $lvl1=1 $lvl2=1
CC96 Y:10 pon:39 2.56463e-16 $lvl1=2 $lvl2=3
CC97 Y:19 pon:30 1.09497e-17 $lvl1=2 $lvl2=3
CC98 Y:10 Mmp5@3:g 2.52116e-16 $lvl1=2 $lvl2=3
CC99 Y:40 pon:58 3.27412e-17 $lvl1=1 $lvl2=1
CC100 Y:19 pon:36 2.44111e-16 $lvl1=2 $lvl2=3
CC101 Y:51 pon:58 5.98049e-17 $lvl1=1 $lvl2=1
CC102 Y:31 pon:35 2.44808e-16 $lvl1=2 $lvl2=3
CC103 Y:40 pon:57 1.36009e-17 $lvl1=1 $lvl2=2
CC104 Y:54 pon:60 5.70911e-17 $lvl1=1 $lvl2=1
CC105 Y:1 pon:57 1.48197e-17 $lvl1=2 $lvl2=2
CC106 Y:41 pon:58 3.50987e-17 $lvl1=1 $lvl2=1
CC107 Y:1 pon 2.4856e-16 $lvl1=2 $lvl2=3
CC108 Y pon:57 1.46658e-17 $lvl1=1 $lvl2=2
CC109 Y:39 pon:57 1.97882e-17 $lvl1=1 $lvl2=2
CC110 Y:55 non:69 7.87598e-18 $lvl1=1 $lvl2=1
CC111 Y:6 non:69 5.40612e-18 $lvl1=2 $lvl2=1
CC112 Y:24 non:64 4.62597e-18 $lvl1=2 $lvl2=2
CC113 Y:15 non:64 4.54397e-18 $lvl1=2 $lvl2=2
CC114 Y:49 non:64 4.45204e-18 $lvl1=1 $lvl2=2
CC115 Y:45 non:64 4.02252e-18 $lvl1=1 $lvl2=2
CC116 Y:43 non:64 3.92757e-18 $lvl1=1 $lvl2=2
CC117 Y:6 non:64 3.81792e-18 $lvl1=2 $lvl2=2
CC118 Y:33 non:64 3.37793e-18 $lvl1=2 $lvl2=2
CC119 Y:42 non:64 3.29474e-18 $lvl1=1 $lvl2=2
CC120 Mmn5:d non:41 2.92348e-18 $lvl1=4 $lvl2=3
CC121 Y:54 non:67 2.73235e-18 $lvl1=1 $lvl2=1
CC122 Y:41 non:65 2.68426e-18 $lvl1=1 $lvl2=2
CC123 Y:5 non:66 2.67618e-18 $lvl1=2 $lvl2=2
CC124 Mmn5@1:d non:41 2.60224e-18 $lvl1=4 $lvl2=3
CC125 Y:6 non:67 2.26743e-18 $lvl1=2 $lvl2=1
CC126 Y non:41 2.08815e-18 $lvl1=1 $lvl2=3
CC127 Mmn5@3:d non:41 2.06367e-18 $lvl1=4 $lvl2=3
CC128 Y:41 non:69 1.79454e-18 $lvl1=1 $lvl2=1
CC129 Y:40 non:41 1.72033e-18 $lvl1=1 $lvl2=3
CC130 Y:41 non:66 1.68496e-18 $lvl1=1 $lvl2=2
CC131 Mmn5@5:d non:41 1.49735e-18 $lvl1=4 $lvl2=3
CC132 Y:49 non:69 1.26687e-18 $lvl1=1 $lvl2=1
CC133 Y:39 non:41 1.26054e-18 $lvl1=1 $lvl2=3
CC134 Y:38 non:64 1.12708e-18 $lvl1=1 $lvl2=2
CC135 Y:47 non:64 1.04751e-18 $lvl1=1 $lvl2=2
CC136 Y:5 non:64 1.43049e-17 $lvl1=2 $lvl2=2
CC137 Y:5 non:33 1.26473e-16 $lvl1=2 $lvl2=3
CC138 Y:14 non:64 1.62223e-17 $lvl1=2 $lvl2=2
CC139 Y:41 non:64 1.95096e-17 $lvl1=1 $lvl2=2
CC140 Y:35 non:64 1.53711e-17 $lvl1=2 $lvl2=2
CC141 Y:14 Mmn5@3:g 1.25688e-16 $lvl1=2 $lvl2=3
CC142 Y:23 non:64 1.67381e-17 $lvl1=2 $lvl2=2
CC143 Y:41 non:67 3.84674e-17 $lvl1=1 $lvl2=1
CC144 Y non:64 2.37416e-17 $lvl1=1 $lvl2=2
CC145 Y:14 non:41 1.63109e-17 $lvl1=2 $lvl2=3
CC146 Y:5 non:36 1.26185e-16 $lvl1=2 $lvl2=3
CC147 Y:23 Mmn5@5:g 1.23327e-16 $lvl1=2 $lvl2=3
CC148 Y:35 non:47 1.247e-16 $lvl1=2 $lvl2=3
CC149 Y:42 non:67 2.8901e-17 $lvl1=1 $lvl2=1
CC150 Y:35 Mmn5@7:g 1.27577e-16 $lvl1=2 $lvl2=3
CC151 Y:14 Mmn5@4:g 1.26122e-16 $lvl1=2 $lvl2=3
CC152 Y:35 non:41 1.40557e-17 $lvl1=2 $lvl2=3
CC153 Y:42 non:69 3.82639e-17 $lvl1=1 $lvl2=1
CC154 Y:23 non:41 1.52334e-17 $lvl1=2 $lvl2=3
CC155 Y:39 non:64 3.02533e-17 $lvl1=1 $lvl2=2
CC156 Y:5 non:41 1.29139e-17 $lvl1=2 $lvl2=3
CC157 Y:40 non:64 3.017e-17 $lvl1=1 $lvl2=2
CC158 Y:23 Mmn5@2:g 1.31623e-16 $lvl1=2 $lvl2=3
CC159 Y:43 VSS!:22 9.19174e-18 $lvl1=1 $lvl2=2
CC160 Y:45 VSS!:25 8.53734e-18 $lvl1=1 $lvl2=2
CC161 Y:45 VSS!:22 8.37773e-18 $lvl1=1 $lvl2=2
CC162 Y:49 VSS!:28 8.11502e-18 $lvl1=1 $lvl2=2
CC163 Y:27 VSS!:9 7.48761e-18 $lvl1=2 $lvl2=2
CC164 Y:18 VSS!:10 7.21095e-18 $lvl1=2 $lvl2=2
CC165 Y:9 VSS!:14 6.69478e-18 $lvl1=2 $lvl2=2
CC166 Y VSS!:1 6.17707e-18 $lvl1=1 $lvl2=2
CC167 Y:18 VSS!:9 6.11286e-18 $lvl1=2 $lvl2=2
CC168 Y:9 VSS!:10 5.76836e-18 $lvl1=2 $lvl2=2
CC169 Y:49 VSS!:25 5.74615e-18 $lvl1=1 $lvl2=2
CC170 Y:43 VSS!:44 5.5371e-18 $lvl1=1 $lvl2=1
CC171 Y:42 VSS!:28 5.39719e-18 $lvl1=1 $lvl2=2
CC172 Y:27 VSS!:8 5.39358e-18 $lvl1=2 $lvl2=2
CC173 Y:18 VSS!:28 5.35325e-18 $lvl1=2 $lvl2=2
CC174 Y:49 VSS!:45 5.33414e-18 $lvl1=1 $lvl2=1
CC175 Y:27 VSS!:22 5.15021e-18 $lvl1=2 $lvl2=2
CC176 Y:9 VSS!:31 5.10614e-18 $lvl1=2 $lvl2=2
CC177 Y:18 VSS!:25 4.93883e-18 $lvl1=2 $lvl2=2
CC178 Y:36 VSS!:1 4.93854e-18 $lvl1=2 $lvl2=2
CC179 Y:36 VSS!:22 4.87753e-18 $lvl1=2 $lvl2=2
CC180 Mmn5@1:d VSS!:8 4.66578e-18 $lvl1=4 $lvl2=2
CC181 Y:27 VSS!:25 4.46914e-18 $lvl1=2 $lvl2=2