*
*|DSPF 1.5
*
*|DATE "Wed Jan  8 18:50:18 2025"
*|VENDOR "Cadence Design Systems"
*|PROGRAM "Cadence Quantus Extraction"
*|VERSION "22.1.0-p089 Linux 64 bit - (Thu Jan 19 11:47:08 PST 2023)"
*|DESIGN TBUFX1_HS
*|DIVIDER /
*|DELIMITER :
*|DeviceFingerDelim "@"
*|BUSBIT []
*|GLOBAL_TEMPERATURE 25
*|OPERATING_TEMPERATURE 25

** *VIA_COVERAGE_CODES
** *index FF FS FP FU SF SS SP SU PF PS PP PU UF US UP UU X_by_Y
** * "FF" stands for Full landing and Full coverage
** *0 0 0 0 0 0 0 0 0 0 0 0 0 0 0 0 0
** *1 0 0 0 0 0 0 0 0 0 0 0 0 0 0 0 1 1x1
** *2 0 0 0 0 0 0 0 0 0 0 0 0 0 0 1 0 1x1
** *3 0 0 0 0 0 0 0 0 0 0 0 0 0 1 0 0 1x1
** *4 0 0 0 0 0 0 0 0 0 0 0 0 1 0 0 0 1x1
** *5 0 0 0 0 0 0 0 0 0 0 0 1 0 0 0 0 1x1
** *6 0 0 0 0 0 0 0 0 0 0 1 0 0 0 0 0 1x1
** *7 0 0 0 0 0 0 0 0 0 1 0 0 0 0 0 0 1x1
** *8 0 0 0 0 0 0 0 0 1 0 0 0 0 0 0 0 1x1
** *9 0 0 0 0 0 0 0 1 0 0 0 0 0 0 0 0 1x1
** *10 0 0 0 0 0 0 1 0 0 0 0 0 0 0 0 0 1x1
** *11 0 0 0 0 0 1 0 0 0 0 0 0 0 0 0 0 1x1
** *12 0 0 0 0 1 0 0 0 0 0 0 0 0 0 0 0 1x1
** *13 0 0 0 1 0 0 0 0 0 0 0 0 0 0 0 0 1x1
** *14 0 0 1 0 0 0 0 0 0 0 0 0 0 0 0 0 1x1
** *15 0 1 0 0 0 0 0 0 0 0 0 0 0 0 0 0 1x1
** *16 1 0 0 0 0 0 0 0 0 0 0 0 0 0 0 0 1x1

** *RESISTOR_TYPES
** *1 SHORTING_ELEMENT
** *2 PRES_NG
** *3 PRES_PG
** *4 PRES_NF
** *5 PRES_PF
** *6 TCN_NDIFF
** *7 TCN_PDIFF
** *8 TCN_NFIELD
** *9 TCN_PFIELD
** *10 QUALITY_EXTRACTED
** *11 GCNLAND
** *12 TCNLAND
** *13 DUMMY
** *14 RSD
** *15 BRIDGE

** *RESISTOR_CURRENT_DIRECTION
** *0 HORIZONTAL
** *1 VERTICAL
** *2 45 DEGREE

** QRC_TECH_DIR /vols/wfo_devel/projects/reference_SKY130/tech/sky130_release_0.0.4/quantus/extraction/typical 
** HIERARCHICAL_SPLIT_PINS_DELIMITER '%'
** caps2d version: 10
*
.SUBCKT  TBUFX1_HS A OE Y
*
*Net Section
*
*|GROUND_NET VSS!
*
*LAYER_MAP
*0 none
*1 metal1
*2 li
*3 poly
*4 diff
*5 licon_diff
*6 mcon
*7 licon
*8 FOX

*|NET Y 1.25428e-15
*|P (Y X 0 3.2350 2.0800) // $llx=3.2350 $lly=2.0800 $urx=3.2350 $ury=2.0800 $lvl=1
*|I (Mmp5:d Mmp5 d X 0 3.2805 3.0150) // $llx=3.2805 $lly=3.0150 $urx=3.2805 $ury=3.0150 $lvl=4
*|I (Mmn5:d Mmn5 d X 0 3.2805 0.7750) // $llx=3.2805 $lly=0.7750 $urx=3.2805 $ury=0.7750 $lvl=4
*|S (Y:1 3.4200 3.7450) // $llx=3.4200 $lly=3.7450 $urx=3.4200 $ury=3.7450 $lvl=2
*|S (Y:3 3.4200 3.0150) // $llx=3.4200 $lly=3.0150 $urx=3.4200 $ury=3.0150 $lvl=2
*|S (Y:4 3.4200 2.8300) // $llx=3.4200 $lly=2.8300 $urx=3.4200 $ury=2.8300 $lvl=2
*|S (Y:5 3.4200 2.2850) // $llx=3.4200 $lly=2.2850 $urx=3.4200 $ury=2.2850 $lvl=2
*|S (Y:6 3.4200 1.1550) // $llx=3.4200 $lly=1.1550 $urx=3.4200 $ury=1.1550 $lvl=2
*|S (Y:8 3.4200 0.7750) // $llx=3.4200 $lly=0.7750 $urx=3.4200 $ury=0.7750 $lvl=2
*|S (Y:9 3.4200 0.7400) // $llx=3.4200 $lly=0.7400 $urx=3.4200 $ury=0.7400 $lvl=2
*|S (Y:10 3.3125 3.3350) // $llx=3.3125 $lly=3.3350 $urx=3.3125 $ury=3.3350 $lvl=1
*|S (Y:11 3.4200 2.8300) // $llx=3.4200 $lly=2.8300 $urx=3.4200 $ury=2.8300 $lvl=1
*|S (Y:12 3.3125 2.3250) // $llx=3.3125 $lly=2.3250 $urx=3.3125 $ury=2.3250 $lvl=1
*|S (Y:13 3.3125 1.0645) // $llx=3.3125 $lly=1.0645 $urx=3.3125 $ury=1.0645 $lvl=1
*|S (Y:14 3.4200 0.7400) // $llx=3.4200 $lly=0.7400 $urx=3.4200 $ury=0.7400 $lvl=1
*|S (Y:15 3.3125 0.4150) // $llx=3.3125 $lly=0.4150 $urx=3.3125 $ury=0.4150 $lvl=1
CC1 Mmn5:d VSS! 1.4086e-18 $lvl=4
CC2 Mmp5:d VSS! 9.80604e-19 $lvl=4
CC3 Y:13 VSS! 1.09734e-17 $lvl=1
CC4 Y:11 VSS! 6.57916e-18 $lvl=1
CC5 Y:10 VSS! 6.08962e-18 $lvl=1
CC6 Y:6 VSS! 1.25945e-17 $lvl=2
CC7 Y:1 VSS! 5.28769e-18 $lvl=2
CC8 Y:5 VSS! 1.75272e-18 $lvl=2
CC9 Y:9 VSS! 1.24736e-18 $lvl=2
CC10 Y:4 VSS! 2.11114e-18 $lvl=2
CC11 Y VSS! 1.08219e-17 $lvl=1
CC12 Y:11 pon:22 4.27727e-18 $lvl1=1 $lvl2=1
CC13 Y:6 pon:16 3.87794e-18 $lvl1=2 $lvl2=2
CC14 Y:6 pon:6 3.69928e-18 $lvl1=2 $lvl2=3
CC15 Y:1 pon:6 3.06294e-18 $lvl1=2 $lvl2=3
CC16 Y:5 pon:16 2.95182e-18 $lvl1=2 $lvl2=2
CC17 Y pon:19 2.91971e-18 $lvl1=1 $lvl2=2
CC18 Y:13 pon:12 2.75472e-18 $lvl1=1 $lvl2=2
CC19 Y pon:6 2.58795e-18 $lvl1=1 $lvl2=3
CC20 Y pon:25 2.18552e-18 $lvl1=1 $lvl2=1
CC21 Y:5 pon:6 1.96859e-18 $lvl1=2 $lvl2=3
CC22 Y:1 pon:16 1.81328e-18 $lvl1=2 $lvl2=2
CC23 Y:13 pon:6 1.77021e-18 $lvl1=1 $lvl2=3
CC24 Y:10 pon:9 1.54114e-18 $lvl1=1 $lvl2=2
CC25 Y:10 pon:22 1.51295e-18 $lvl1=1 $lvl2=1
CC26 Mmp5:d pon:6 1.47128e-18 $lvl1=4 $lvl2=3
CC27 Y:4 pon:16 1.12152e-18 $lvl1=2 $lvl2=2
CC28 Y pon:18 1.0451e-18 $lvl1=1 $lvl2=2
CC29 Y:1 pon:20 9.59376e-19 $lvl1=2 $lvl2=1
CC30 Y:5 pon:4 9.33455e-19 $lvl1=2 $lvl2=3
CC31 Y:13 pon:19 9.13169e-19 $lvl1=1 $lvl2=2
CC32 Mmn5:d pon:6 8.15062e-19 $lvl1=4 $lvl2=3
CC33 Y:13 pon:20 7.57905e-19 $lvl1=1 $lvl2=1
CC34 Y:10 pon:10 6.4493e-19 $lvl1=1 $lvl2=2
CC35 Y:6 pon:25 5.2984e-19 $lvl1=2 $lvl2=1
CC36 Y:4 pon:6 4.97653e-19 $lvl1=2 $lvl2=3
CC37 Y:11 pon:16 4.54602e-19 $lvl1=1 $lvl2=2
CC38 Y:6 pon:12 4.36487e-19 $lvl1=2 $lvl2=2
CC39 Y:10 pon:11 4.20369e-19 $lvl1=1 $lvl2=2
CC40 Y:13 pon:18 4.02818e-19 $lvl1=1 $lvl2=2
CC41 Y:6 pon:22 3.89284e-19 $lvl1=2 $lvl2=1
CC42 Y:1 pon:9 3.84264e-19 $lvl1=2 $lvl2=2
CC43 Y:11 pon:11 3.44474e-19 $lvl1=1 $lvl2=2
CC44 Y:9 pon:16 3.29371e-19 $lvl1=2 $lvl2=2
CC45 Y:9 pon:25 3.01108e-19 $lvl1=2 $lvl2=1
CC46 Y pon:4 2.94676e-19 $lvl1=1 $lvl2=3
CC47 Y pon:22 2.83121e-17 $lvl1=1 $lvl2=1
CC48 Y pon:20 6.73411e-18 $lvl1=1 $lvl2=1
CC49 Y:13 pon:16 6.84234e-18 $lvl1=1 $lvl2=2
CC50 Y:1 pon:4 2.50015e-16 $lvl1=2 $lvl2=3
CC51 Y pon:16 1.9261e-17 $lvl1=1 $lvl2=2
CC52 Y:10 pon:20 1.61721e-17 $lvl1=1 $lvl2=1
CC53 Y:13 pon:25 2.53728e-17 $lvl1=1 $lvl2=1
CC54 Y:11 pon:20 1.1873e-17 $lvl1=1 $lvl2=1
CC55 Y:13 pon:22 1.44205e-17 $lvl1=1 $lvl2=1
CC56 Y:13 non:18 4.558e-18 $lvl1=1 $lvl2=2
CC57 Y non:18 1.61714e-18 $lvl1=1 $lvl2=2
CC58 Y:6 non:5 1.09811e-18 $lvl1=2 $lvl2=3
CC59 Y:6 non:18 9.74733e-19 $lvl1=2 $lvl2=2
CC60 Y:13 non:28 7.61609e-19 $lvl1=1 $lvl2=1
CC61 Y non:22 6.40858e-19 $lvl1=1 $lvl2=1
CC62 Y:13 non:5 6.33828e-19 $lvl1=1 $lvl2=3
CC63 Y:10 non:22 6.28369e-19 $lvl1=1 $lvl2=1
CC64 Y non:26 5.27005e-19 $lvl1=1 $lvl2=1
CC65 Y:6 non 1.29173e-16 $lvl1=2 $lvl2=3
CC66 Y:9 VSS!:1 3.94444e-18 $lvl1=2 $lvl2=2
CC67 Y:6 VSS!:18 3.41355e-18 $lvl1=2 $lvl2=1
CC68 Y:6 VSS!:6 3.04417e-18 $lvl1=2 $lvl2=4
CC69 Y:13 VSS!:5 2.7947e-18 $lvl1=1 $lvl2=2
CC70 Y:13 VSS!:8 2.72708e-18 $lvl1=1 $lvl2=2
CC71 Y:13 VSS!:11 2.70063e-18 $lvl1=1 $lvl2=2
CC72 Y VSS!:19 2.14954e-18 $lvl1=1 $lvl2=1
CC73 Y:9 VSS!:18 1.76466e-18 $lvl1=2 $lvl2=1
CC74 Y:6 VSS!:19 1.72099e-18 $lvl1=2 $lvl2=1
CC75 Y:6 VSS!:5 1.69254e-18 $lvl1=2 $lvl2=2
CC76 Mmn5:d VSS!:1 1.62738e-18 $lvl1=4 $lvl2=2
CC77 Y VSS!:18 1.31317e-18 $lvl1=1 $lvl2=1
CC78 Y:9 VSS!:11 1.26897e-18 $lvl1=2 $lvl2=2
CC79 Mmn5:d VSS!:8 1.1031e-18 $lvl1=4 $lvl2=2
CC80 Y:9 VSS!:8 9.58912e-19 $lvl1=2 $lvl2=2
CC81 Y:9 VSS!:19 8.80851e-19 $lvl1=2 $lvl2=1
CC82 Y VSS!:1 7.40535e-19 $lvl1=1 $lvl2=2
CC83 Y:9 VSS!:5 7.20303e-19 $lvl1=2 $lvl2=2
CC84 Y:6 VSS!:11 1.15037e-17 $lvl1=2 $lvl2=2
CC85 Y:13 VSS!:19 4.67752e-17 $lvl1=1 $lvl2=1
CC86 Y:6 VSS!:8 1.2207e-17 $lvl1=2 $lvl2=2
CC87 Y:13 VSS!:1 1.96989e-17 $lvl1=1 $lvl2=2
CC88 Y:6 VSS!:1 5.56407e-17 $lvl1=2 $lvl2=2
CC89 Y:13 VSS!:18 2.84374e-17 $lvl1=1 $lvl2=1
CC90 Y:4 VDD!:16 5.42755e-18 $lvl1=2 $lvl2=2
CC91 Y:5 VDD!:16 5.07969e-18 $lvl1=2 $lvl2=2
CC92 Y:1 VDD!:19 4.4823e-18 $lvl1=2 $lvl2=1
CC93 Y:1 VDD!:7 3.74605e-18 $lvl1=2 $lvl2=4
CC94 Y:5 VDD! 2.94921e-18 $lvl1=2 $lvl2=1
CC95 Y:11 VDD!:19 2.80132e-18 $lvl1=1 $lvl2=1
CC96 Y:4 VDD! 2.4012e-18 $lvl1=2 $lvl2=1
CC97 Y:9 VDD! 2.28841e-18 $lvl1=2 $lvl2=1
CC98 Y VDD!:19 2.24292e-18 $lvl1=1 $lvl2=1
CC99 Mmp5:d VDD!:13 1.63171e-18 $lvl1=4 $lvl2=2
CC100 Y:10 VDD!:17 1.51579e-18 $lvl1=1 $lvl2=2
CC101 Y:10 VDD!:13 1.46362e-18 $lvl1=1 $lvl2=2
CC102 Y:11 VDD!:18 1.43255e-18 $lvl1=1 $lvl2=1
CC103 Y:13 VDD!:19 1.38592e-18 $lvl1=1 $lvl2=1
CC104 Y:1 VDD!:6 1.2824e-18 $lvl1=2 $lvl2=2
CC105 Mmp5:d VDD!:16 1.05391e-18 $lvl1=4 $lvl2=2
CC106 Y VDD!:18 1.03771e-18 $lvl1=1 $lvl2=1
CC107 Y:1 Mmp5:s 9.67876e-19 $lvl1=2 $lvl2=4
CC108 Y:10 VDD!:6 7.0673e-19 $lvl1=1 $lvl2=2
CC109 Mmp5:d VDD!:17 6.04414e-19 $lvl1=4 $lvl2=2
CC110 Y:13 VDD!:18 5.97483e-19 $lvl1=1 $lvl2=1
CC111 Mmp5:d VDD!:18 3.806e-19 $lvl1=4 $lvl2=1
CC112 Y:11 VDD!:17 3.02368e-19 $lvl1=1 $lvl2=2
CC113 Y VDD!:16 1.16784e-17 $lvl1=1 $lvl2=2
CC114 Y:6 VDD! 2.41369e-17 $lvl1=2 $lvl2=1
CC115 Y:10 VDD!:18 1.04012e-17 $lvl1=1 $lvl2=1
CC116 Y:1 VDD! 5.28041e-17 $lvl1=2 $lvl2=1
CC117 Y:10 VDD!:19 1.68013e-17 $lvl1=1 $lvl2=1
CC118 Y:13 VDD! 3.73657e-17 $lvl1=1 $lvl2=1
CC119 Y:1 VDD!:16 9.20258e-17 $lvl1=2 $lvl2=2
CC120 Y:11 VDD! 1.35988e-17 $lvl1=1 $lvl2=1
CC121 Y:10 VDD! 2.04048e-17 $lvl1=1 $lvl2=1
CC122 Y:11 VDD!:16 1.0318e-17 $lvl1=1 $lvl2=2
CC123 Y:1 VDD!:17 1.36737e-17 $lvl1=2 $lvl2=2
CC124 Y VDD! 2.78742e-17 $lvl1=1 $lvl2=1
CC125 Y:1 VDD!:13 1.46243e-17 $lvl1=2 $lvl2=2
CC126 Y:10 VDD!:16 1.62928e-17 $lvl1=1 $lvl2=2
CC127 Y:1 VDD!:18 7.84041e-18 $lvl1=2 $lvl2=1
ReC46 Y:10 Y:11 0.141854 $metal1  $L=0.505 $W=0.445000 $SI_W=0.445 $TYPE=10 $DIR=1 $LLX=3.090000 $LLY=2.830000 $URX=3.535000 $URY=3.335000 $lvl=1
ReC47 Y:11 Y:12 0.141784 $metal1  $L=0.5045 $W=0.445000 $SI_W=0.445 $TYPE=10 $DIR=1 $LLX=3.090000 $LLY=2.325500 $URX=3.535000 $URY=2.830000 $lvl=1
ReC48 Y:12 Y 0.117859 $metal1  $L=0.245 $W=0.260000 $SI_W=0.26 $TYPE=10 $DIR=1 $LLX=3.090000 $LLY=2.080000 $URX=3.350000 $URY=2.325000 $lvl=1
ReC49 Y Y:13 0.488051 $metal1  $L=1.015 $W=0.260000 $SI_W=0.26 $TYPE=10 $DIR=1 $LLX=3.090000 $LLY=1.064500 $URX=3.350000 $URY=2.079500 $lvl=1
ReC50 Y:13 Y:14 0.112646 $metal1  $L=0.3245 $W=0.445000 $SI_W=0.445 $TYPE=10 $DIR=1 $LLX=3.090000 $LLY=0.740000 $URX=3.535000 $URY=1.064500 $lvl=1
ReC51 Y:14 Y:15 0.091292 $metal1  $L=0.325 $W=0.445000 $SI_W=0.445 $TYPE=10 $DIR=1 $LLX=3.197500 $LLY=0.415000 $URX=3.642500 $URY=0.740000 $lvl=1
RfC52 Y:1 Y:3 54.964703 $li  $L=0.73 $W=0.170000 $SI_W=0.17 $TYPE=10 $DIR=1 $LLX=3.335000 $LLY=3.015000 $URX=3.505000 $URY=3.745000 $lvl=2
RfC53 Y:3 Y:4 2.769591 $li  $L=0.185 $W=0.170000 $SI_W=0.855 $TYPE=10 $DIR=1 $LLX=3.335000 $LLY=2.830000 $URX=3.505000 $URY=3.015000 $lvl=2
RfC54 Y:4 Y:5 41.035297 $li  $L=0.545 $W=0.170000 $SI_W=0.17 $TYPE=10 $DIR=1 $LLX=3.335000 $LLY=2.285000 $URX=3.505000 $URY=2.830000 $lvl=2
RfC55 Y:6 Y:8 28.611765 $li  $L=0.38 $W=0.170000 $SI_W=0.17 $TYPE=10 $DIR=1 $LLX=3.335000 $LLY=0.775000 $URX=3.505000 $URY=1.155000 $lvl=2
RfC56 Y:8 Y:9 0.923711 $li  $L=0.035 $W=0.170000 $SI_W=0.485 $TYPE=10 $DIR=1 $LLX=3.335000 $LLY=0.740000 $URX=3.505000 $URY=0.775000 $lvl=2
RhC57 Mmn5:d Y:8 7.500000 $licon_diff  $A=0.0578 $VC=0 $SAVL=0 $SAVC=0 $SI_A=0.0578 $COVER_DIR=0 $LLX=0.000000 $LLY=0.000000 $URX=-0.057800 $URY=-2.000000 $lvl=5
Rh_2_C58 Mmp5:d Y:3 3.750000 $licon_diff  $A=0.1156 $VC=0 $SAVL=0 $SAVC=0 $SI_A=0.1156 $COVER_DIR=0 $LLX=0.000000 $LLY=0.000000 $URX=-0.115600 $URY=-4.000000 $lvl=5
RjC59 Y:4 Y:11 50.666668 $mcon  $A=0.0867 $VC=0 $SAVL=0 $SAVC=0 $SI_A=0.0867 $COVER_DIR=0 $LLX=0.000000 $LLY=0.000000 $URX=-0.086700 $URY=-3.000000 $lvl=6
RjC60 Y:9 Y:14 76.000000 $mcon  $A=0.0578 $VC=0 $SAVL=0 $SAVC=0 $SI_A=0.0578 $COVER_DIR=0 $LLX=0.000000 $LLY=0.000000 $URX=-0.057800 $URY=-2.000000 $lvl=6
*
*|NET OE 1.5606e-15
*|P (OE X 0 0.9350 2.2500) // $llx=0.9350 $lly=2.2500 $urx=0.9350 $ury=2.2500 $lvl=1
*|I (Mmp0:g Mmp0 g X 0 0.4750 3.3550) // $llx=0.4750 $lly=3.3550 $urx=0.4750 $ury=3.3550 $lvl=3
*|I (Mmp4:g Mmp4 g X 0 2.7150 3.3550) // $llx=2.7150 $lly=3.3550 $urx=2.7150 $ury=3.3550 $lvl=3
*|I (Mmn4:g Mmn4 g X 0 2.1950 0.6075) // $llx=2.1950 $lly=0.6075 $urx=2.1950 $ury=0.6075 $lvl=3
*|I (Mmn0:g Mmn0 g X 0 0.4750 0.6075) // $llx=0.4750 $lly=0.6075 $urx=0.4750 $ury=0.6075 $lvl=3
*|S (OE:15 0.4750 3.8950) // $llx=0.4750 $lly=3.8950 $urx=0.4750 $ury=3.8950 $lvl=3
*|S (OE:16 0.4150 2.2795) // $llx=0.4150 $lly=2.2795 $urx=0.4150 $ury=2.2795 $lvl=3
*|S (OE:17 0.4150 2.1150) // $llx=0.4150 $lly=2.1150 $urx=0.4150 $ury=2.1150 $lvl=3
*|S (OE:18 0.4150 1.9500) // $llx=0.4150 $lly=1.9500 $urx=0.4150 $ury=1.9500 $lvl=3
*|S (OE:19 0.4750 0.2450) // $llx=0.4750 $lly=0.2450 $urx=0.4750 $ury=0.2450 $lvl=3
*|S (OE:20 2.7150 3.8950) // $llx=2.7150 $lly=3.8950 $urx=2.7150 $ury=3.8950 $lvl=3
*|S (OE:21 2.7150 2.1750) // $llx=2.7150 $lly=2.1750 $urx=2.7150 $ury=2.1750 $lvl=3
*|S (OE:22 2.4495 2.1150) // $llx=2.4495 $lly=2.1150 $urx=2.4495 $ury=2.1150 $lvl=3
*|S (OE:23 2.2850 2.1150) // $llx=2.2850 $lly=2.1150 $urx=2.2850 $ury=2.1150 $lvl=3
*|S (OE:24 2.1950 1.9800) // $llx=2.1950 $lly=1.9800 $urx=2.1950 $ury=1.9800 $lvl=3
*|S (OE:25 2.1950 0.2450) // $llx=2.1950 $lly=0.2450 $urx=2.1950 $ury=0.2450 $lvl=3
*|S (OE:26 2.4500 2.1150) // $llx=2.4500 $lly=2.1150 $urx=2.4500 $ury=2.1150 $lvl=2
*|S (OE:27 2.2850 2.1150) // $llx=2.2850 $lly=2.1150 $urx=2.2850 $ury=2.1150 $lvl=2
*|S (OE:28 0.9200 2.1150) // $llx=0.9200 $lly=2.1150 $urx=0.9200 $ury=2.1150 $lvl=2
*|S (OE:29 0.4150 2.1150) // $llx=0.4150 $lly=2.1150 $urx=0.4150 $ury=2.1150 $lvl=2
*|S (OE:30 0.2500 2.1150) // $llx=0.2500 $lly=2.1150 $urx=0.2500 $ury=2.1150 $lvl=2
*|S (OE:31 0.9200 2.8950) // $llx=0.9200 $lly=2.8950 $urx=0.9200 $ury=2.8950 $lvl=1
*|S (OE:32 0.9200 2.1150) // $llx=0.9200 $lly=2.1150 $urx=0.9200 $ury=2.1150 $lvl=1
*|S (OE:33 0.9200 1.6550) // $llx=0.9200 $lly=1.6550 $urx=0.9200 $ury=1.6550 $lvl=1
CB1 Mmn4:g VSS! 2.94676e-18 $lvl=3
CB2 OE:20 VSS! 1.84642e-18 $lvl=3
CB3 OE:15 VSS! 2.2138e-18 $lvl=3
CB4 OE:19 VSS! 3.15457e-18 $lvl=3
CB5 OE:31 VSS! 8.73537e-18 $lvl=1
CB6 OE:33 VSS! 7.93453e-18 $lvl=1
CB7 OE:26 VSS! 9.75574e-18 $lvl=2
CB8 OE:30 VSS! 4.31152e-18 $lvl=2
CB9 OE:28 VSS! 7.08049e-18 $lvl=2
CB10 OE:17 VSS! 1.4224e-17 $lvl=3
CB11 OE:23 VSS! 1.72577e-17 $lvl=3
CB12 Mmn4:g net144 7.62852e-19 $lvl1=3 $lvl2=2
CB13 OE:31 net127 5.99293e-19 $lvl1=1 $lvl2=2
CB14 OE:28 net127:4 4.97308e-19 $lvl1=2 $lvl2=2
CB15 OE:15 net127:3 2.96037e-19 $lvl1=3 $lvl2=2
CB16 OE:31 net127:4 6.06644e-18 $lvl1=1 $lvl2=2
CB17 Mmn4:g net144:3 6.65197e-17 $lvl1=3 $lvl2=2
CB18 OE:31 net127:3 4.93948e-18 $lvl1=1 $lvl2=2
CB19 OE:26 pon:18 3.99303e-18 $lvl1=2 $lvl2=2
CB20 OE:26 pon:20 2.51097e-18 $lvl1=2 $lvl2=1
CB21 OE:23 pon:22 1.37252e-18 $lvl1=3 $lvl2=1
CB22 OE:31 pon:20 9.96578e-19 $lvl1=1 $lvl2=1
CB23 OE:20 pon:11 9.65748e-19 $lvl1=3 $lvl2=2
CB24 OE:26 pon:16 9.38467e-19 $lvl1=2 $lvl2=2
CB25 OE:23 pon:6 8.89661e-19 $lvl1=3 $lvl2=3
CB26 OE:23 pon:16 8.59854e-19 $lvl1=3 $lvl2=2
CB27 OE:23 pon:20 8.5462e-19 $lvl1=3 $lvl2=1
CB28 OE:26 pon:11 7.46054e-19 $lvl1=2 $lvl2=2
CB29 OE:23 pon:19 8.73074e-18 $lvl1=3 $lvl2=2
CB30 OE:20 pon:9 1.3117e-16 $lvl1=3 $lvl2=2
CB31 OE:26 pon:19 1.57427e-17 $lvl1=2 $lvl2=2
CB32 OE:26 pon:22 1.15617e-17 $lvl1=2 $lvl2=1
CB33 Mmn4:g pon:12 6.69061e-17 $lvl1=3 $lvl2=2
CB34 OE:26 non:21 5.79027e-18 $lvl1=2 $lvl2=2
CB35 OE:26 non:26 3.48089e-18 $lvl1=2 $lvl2=1
CB36 OE:23 non:5 2.89794e-18 $lvl1=3 $lvl2=3
CB37 OE:26 non:18 2.78755e-18 $lvl1=2 $lvl2=2
CB38 OE:33 non:27 2.44621e-18 $lvl1=1 $lvl2=1
CB39 OE:28 non:22 2.21404e-18 $lvl1=2 $lvl2=1
CB40 OE:23 non:18 2.06401e-18 $lvl1=3 $lvl2=2
CB41 OE:33 non:20 1.88661e-18 $lvl1=1 $lvl2=2
CB42 OE:33 non:29 1.75329e-18 $lvl1=1 $lvl2=1
CB43 OE:23 non:21 1.64521e-18 $lvl1=3 $lvl2=2
CB44 OE:28 non:21 1.39018e-18 $lvl1=2 $lvl2=2
CB45 OE:33 non:22 1.33395e-18 $lvl1=1 $lvl2=1
CB46 OE:33 non:21 1.31373e-18 $lvl1=1 $lvl2=2
CB47 Mmn4:g non:5 1.20905e-18 $lvl1=3 $lvl2=3
CB48 OE:33 non:28 8.58131e-19 $lvl1=1 $lvl2=1
CB49 Mmn4:g non:18 8.44897e-19 $lvl1=3 $lvl2=2
CB50 Mmn4:g non:21 8.36062e-19 $lvl1=3 $lvl2=2
CB51 OE:26 non:5 7.9282e-19 $lvl1=2 $lvl2=3
CB52 OE:31 non:13 6.79556e-19 $lvl1=1 $lvl2=2
CB53 OE:19 non:9 6.45634e-19 $lvl1=3 $lvl2=2
CB54 OE:26 non:22 6.44969e-19 $lvl1=2 $lvl2=1
CB55 OE:31 non:16 6.31383e-19 $lvl1=1 $lvl2=2
CB56 OE:31 non:22 3.66479e-17 $lvl1=1 $lvl2=1
CB57 OE:33 non:26 2.37258e-17 $lvl1=1 $lvl2=1
CB58 OE:28 non:26 8.73839e-18 $lvl1=2 $lvl2=1
CB59 OE:31 non:26 1.72159e-17 $lvl1=1 $lvl2=1
CB60 OE:33 OEb:24 6.19149e-18 $lvl1=1 $lvl2=2
CB61 OE:26 OEb:21 4.63004e-18 $lvl1=2 $lvl2=2
CB62 OE:26 OEb:9 3.19178e-18 $lvl1=2 $lvl2=3
CB63 OE:30 OEb:25 3.16492e-18 $lvl1=2 $lvl2=1
CB64 OE:33 OEb:30 3.01502e-18 $lvl1=1 $lvl2=1
CB65 OE:17 OEb:27 2.30536e-18 $lvl1=3 $lvl2=1
CB66 OE:28 OEb:27 1.84739e-18 $lvl1=2 $lvl2=1
CB67 OE:17 OEb:25 1.4484e-18 $lvl1=3 $lvl2=1
CB68 OE:31 OEb:24 1.43859e-18 $lvl1=1 $lvl2=2
CB69 OE:33 OEb:23 1.4208e-18 $lvl1=1 $lvl2=2
CB70 OE:17 OEb:21 1.19457e-18 $lvl1=3 $lvl2=2
CB71 OE:17 OEb:12 1.18034e-18 $lvl1=3 $lvl2=2
CB72 OE:31 OEb:21 1.17706e-18 $lvl1=1 $lvl2=2
CB73 OE:23 OEb:9 1.15224e-18 $lvl1=3 $lvl2=3
CB74 OE:31 OEb:16 1.10704e-18 $lvl1=1 $lvl2=2
CB75 OE:31 OEb:12 1.09588e-18 $lvl1=1 $lvl2=2
CB76 OE:17 OEb:9 1.09041e-18 $lvl1=3 $lvl2=3
CB77 OE:33 OEb:25 1.07004e-18 $lvl1=1 $lvl2=1
CB78 OE:15 OEb:16 1.05892e-18 $lvl1=3 $lvl2=2
CB79 OE:30 OEb:21 1.03853e-18 $lvl1=2 $lvl2=2
CB80 OE:17 OEb:16 8.73087e-19 $lvl1=3 $lvl2=2
CB81 OE:31 OEb:30 8.69487e-19 $lvl1=1 $lvl2=1
CB82 OE:30 OEb:16 8.68264e-19 $lvl1=2 $lvl2=2
CB83 OE:17 OEb:23 7.98295e-19 $lvl1=3 $lvl2=2
CB84 OE:30 OEb:12 7.35954e-19 $lvl1=2 $lvl2=2
CB85 OE:19 OEb:24 6.78724e-19 $lvl1=3 $lvl2=2
CB86 OE:31 OEb:15 6.74227e-19 $lvl1=1 $lvl2=2
CB87 OE:31 OEb:23 5.77668e-19 $lvl1=1 $lvl2=2
CB88 OE:15 OEb:25 5.23254e-19 $lvl1=3 $lvl2=1
CB89 OE:28 OEb:25 4.6443e-19 $lvl1=2 $lvl2=1
CB90 OE:15 OEb:12 1.31475e-16 $lvl1=3 $lvl2=2
CB91 OE:31 OEb:27 2.38625e-17 $lvl1=1 $lvl2=1
CB92 OE:30 OEb:24 2.35127e-17 $lvl1=2 $lvl2=2
CB93 OE:28 OEb:24 1.06556e-17 $lvl1=2 $lvl2=2
CB94 OE:33 OEb:21 1.06213e-17 $lvl1=1 $lvl2=2
CB95 OE:30 OEb:23 8.10572e-18 $lvl1=2 $lvl2=2
CB96 OE:19 OEb:17 6.90194e-17 $lvl1=3 $lvl2=2
CB97 OE:17 OEb:24 1.37715e-17 $lvl1=3 $lvl2=2
CB98 OE:30 OEb:27 1.22991e-17 $lvl1=2 $lvl2=1
CB99 OE:31 OEb:25 2.67424e-17 $lvl1=1 $lvl2=1
CB100 OE:33 OEb:27 2.06636e-17 $lvl1=1 $lvl2=1
CB101 OE:28 OEb:21 4.63107e-17 $lvl1=2 $lvl2=2
CB102 OE:28 OEb:9 1.20842e-17 $lvl1=2 $lvl2=3
CB103 OE:19 VSS!:9 6.71228e-18 $lvl1=3 $lvl2=2
CB104 OE:33 VSS!:19 1.34791e-18 $lvl1=1 $lvl2=1
CB105 Mmn4:g VSS!:1 1.32653e-18 $lvl1=3 $lvl2=2
CB106 Mmn4:g VSS!:8 8.71391e-18 $lvl1=3 $lvl2=2
CB107 OE:19 VSS!:16 6.61585e-17 $lvl1=3 $lvl2=2
CB108 OE:15 VDD!:4 7.4434e-18 $lvl1=3 $lvl2=2
CB109 OE:20 VDD!:13 7.13172e-18 $lvl1=3 $lvl2=2
CB110 OE:31 VDD!:19 6.52866e-18 $lvl1=1 $lvl2=1
CB111 OE:23 VDD!:16 5.50403e-18 $lvl1=3 $lvl2=2
CB112 OE:26 VDD!:16 4.92501e-18 $lvl1=2 $lvl2=2
CB113 OE:33 VDD! 4.90722e-18 $lvl1=1 $lvl2=1
CB114 OE:30 VDD! 4.87705e-18 $lvl1=2 $lvl2=1
CB115 OE:28 VDD! 2.84366e-18 $lvl1=2 $lvl2=1
CB116 OE:26 VDD! 2.32539e-18 $lvl1=2 $lvl2=1
CB117 OE:20 VDD!:4 1.79813e-18 $lvl1=3 $lvl2=2
CB118 OE:23 VDD!:12 1.30257e-18 $lvl1=3 $lvl2=2
CB119 OE:31 VDD!:20 1.16759e-18 $lvl1=1 $lvl2=1
CB120 OE:23 Mmp5:s 1.13172e-18 $lvl1=3 $lvl2=4
CB121 OE:17 VDD!:3 1.03573e-18 $lvl1=3 $lvl2=2
CB122 OE:20 VDD!:12 9.75642e-19 $lvl1=3 $lvl2=2
CB123 OE:31 VDD! 1.13911e-17 $lvl1=1 $lvl2=1
CB124 OE:15 VDD!:3 1.29093e-16 $lvl1=3 $lvl2=2
CB125 OE:31 VDD!:3 8.46113e-18 $lvl1=1 $lvl2=2
CB126 OE:17 VDD! 1.59377e-17 $lvl1=3 $lvl2=1
CB127 OE:20 VDD!:16 6.86934e-17 $lvl1=3 $lvl2=2
CB128 OE:23 VDD! 9.99236e-18 $lvl1=3 $lvl2=1
ReB23 OE:31 OE 0.310096 $metal1  $L=0.645 $W=0.260000 $SI_W=0.26 $TYPE=10 $DIR=1 $LLX=0.790000 $LLY=2.250000 $URX=1.050000 $URY=2.895000 $lvl=1
ReB24 OE OE:32 0.064904 $metal1  $L=0.135 $W=0.260000 $SI_W=0.26 $TYPE=10 $DIR=1 $LLX=0.805000 $LLY=2.115000 $URX=1.065000 $URY=2.250000 $lvl=1
ReB25 OE:32 OE:33 0.221154 $metal1  $L=0.46 $W=0.260000 $SI_W=0.26 $TYPE=10 $DIR=1 $LLX=0.790000 $LLY=1.655000 $URX=1.050000 $URY=2.115000 $lvl=1
RfB26 OE:26 OE:27 12.423529 $li  $L=0.165 $W=0.170000 $SI_W=0.17 $TYPE=10 $DIR=0 $LLX=2.285000 $LLY=2.030000 $URX=2.450000 $URY=2.200000 $lvl=2
RfB27 OE:27 OE:28 102.776474 $li  $L=1.365 $W=0.170000 $SI_W=0.17 $TYPE=10 $DIR=0 $LLX=0.920000 $LLY=2.030000 $URX=2.285000 $URY=2.200000 $lvl=2
RfB28 OE:28 OE:29 38.023529 $li  $L=0.505 $W=0.170000 $SI_W=0.17 $TYPE=10 $DIR=0 $LLX=0.415000 $LLY=2.030000 $URX=0.920000 $URY=2.200000 $lvl=2
RfB29 OE:29 OE:30 12.423529 $li  $L=0.165 $W=0.170000 $SI_W=0.17 $TYPE=10 $DIR=0 $LLX=0.250000 $LLY=2.030000 $URX=0.415000 $URY=2.200000 $lvl=2
RgB30 OE:15 Mmp0:g 173.519989 $poly  $L=0.54 $W=0.150000 $SI_W=0.15 $TYPE=10 $DIR=1 $LLX=0.400000 $LLY=3.355000 $URX=0.550000 $URY=3.895000 $lvl=3
RgB31 Mmp0:g OE:16 345.477966 $poly  $L=1.075 $W=0.150000 $SI_W=0.15 $TYPE=10 $DIR=1 $LLX=0.400000 $LLY=2.279500 $URX=0.550000 $URY=3.354500 $lvl=3
RgB32 OE:16 OE:17 38.857975 $poly  $L=0.1645 $W=0.270000 $SI_W=0.27 $TYPE=10 $DIR=1 $LLX=0.280000 $LLY=2.114500 $URX=0.550000 $URY=2.279500 $lvl=3
RgB33 OE:17 OE:18 29.410927 $poly  $L=0.1645 $W=0.270000 $SI_W=0.27 $TYPE=10 $DIR=1 $LLX=0.280000 $LLY=1.950500 $URX=0.550000 $URY=2.114500 $lvl=3
RgB34 OE:18 Mmn0:g 431.434631 $poly  $L=1.3425 $W=0.150000 $SI_W=0.15 $TYPE=10 $DIR=1 $LLX=0.400000 $LLY=0.607500 $URX=0.550000 $URY=1.950000 $lvl=3
RgB35 Mmn0:g OE:19 116.483322 $poly  $L=0.3625 $W=0.150000 $SI_W=0.15 $TYPE=10 $DIR=1 $LLX=0.400000 $LLY=0.245000 $URX=0.550000 $URY=0.607500 $lvl=3
RgB36 OE:20 Mmp4:g 173.519989 $poly  $L=0.54 $W=0.150000 $SI_W=0.15 $TYPE=10 $DIR=1 $LLX=2.640000 $LLY=3.355000 $URX=2.790000 $URY=3.895000 $lvl=3
RgB37 Mmp4:g OE:21 379.093018 $poly  $L=1.17975 $W=0.150000 $SI_W=0.15 $TYPE=10 $DIR=1 $LLX=2.640000 $LLY=2.175000 $URX=2.790000 $URY=3.355000 $lvl=3
RgB38 OE:21 OE:22 85.278297 $poly  $L=0.26525 $W=0.150000 $SI_W=0.15 $TYPE=10 $DIR=0 $LLX=2.450000 $LLY=2.100000 $URX=2.715000 $URY=2.250000 $lvl=3
RgB39 OE:22 OE:23 30.460598 $poly  $L=0.1645 $W=0.270000 $SI_W=0.27 $TYPE=10 $DIR=0 $LLX=2.284500 $LLY=1.980000 $URX=2.449500 $URY=2.250000 $lvl=3
RgB40 OE:23 OE:24 21.669903 $poly  $L=0.1345 $W=0.300000 $SI_W=0.3 $TYPE=10 $DIR=1 $LLX=2.120000 $LLY=1.980500 $URX=2.420000 $URY=2.114500 $lvl=3
RgB41 OE:24 Mmn4:g 441.070160 $poly  $L=1.3725 $W=0.150000 $SI_W=0.15 $TYPE=10 $DIR=1 $LLX=2.120000 $LLY=0.607500 $URX=2.270000 $URY=1.980000 $lvl=3
RgB42 Mmn4:g OE:25 116.483322 $poly  $L=0.3625 $W=0.150000 $SI_W=0.15 $TYPE=10 $DIR=1 $LLX=2.120000 $LLY=0.245000 $URX=2.270000 $URY=0.607500 $lvl=3
RjB43 OE:28 OE:32 152.000000 $mcon  $L=0.17 $W=0.17 $A=0.0289 $VC=0 $SAVL=0 $SAVC=0 $SI_A=0.0289 $COVER_DIR=0 $LLX=0.000000 $LLY=0.000000 $URX=0.170000 $URY=0.170000 $lvl=6
RiB44 OE:23 OE:27 15.000000 $licon  $L=0.17 $W=0.17 $A=0.0289 $VC=0 $SAVL=0 $SAVC=0 $SI_A=0.0289 $COVER_DIR=0 $LLX=0.000000 $LLY=0.000000 $URX=0.170000 $URY=0.170000 $lvl=7
RiB45 OE:17 OE:29 15.000000 $licon  $L=0.17 $W=0.17 $A=0.0289 $VC=0 $SAVL=0 $SAVC=0 $SI_A=0.0289 $COVER_DIR=0 $LLX=0.000000 $LLY=0.000000 $URX=0.170000 $URY=0.170000 $lvl=7
*
*|NET A 1.48495e-15
*|P (A X 0 1.8550 2.0650) // $llx=1.8550 $lly=2.0650 $urx=1.8550 $ury=2.0650 $lvl=1
*|I (Mmp3:g Mmp3 g X 0 2.2850 3.3550) // $llx=2.2850 $lly=3.3550 $urx=2.2850 $ury=3.3550 $lvl=3
*|I (Mmp1:g Mmp1 g X 0 0.9050 3.3550) // $llx=0.9050 $lly=3.3550 $urx=0.9050 $ury=3.3550 $lvl=3
*|I (Mmn1:g Mmn1 g X 0 0.9050 0.6075) // $llx=0.9050 $lly=0.6075 $urx=0.9050 $ury=0.6075 $lvl=3
*|I (Mmn3:g Mmn3 g X 0 1.7650 0.6075) // $llx=1.7650 $lly=0.6075 $urx=1.7650 $ury=0.6075 $lvl=3
*|S (A:15 0.9050 3.8950) // $llx=0.9050 $lly=3.8950 $urx=0.9050 $ury=3.8950 $lvl=3
*|S (A:16 0.9050 2.4550) // $llx=0.9050 $lly=2.4550 $urx=0.9050 $ury=2.4550 $lvl=3
*|S (A:17 0.9050 2.2900) // $llx=0.9050 $lly=2.2900 $urx=0.9050 $ury=2.2900 $lvl=3
*|S (A:18 0.9050 0.2450) // $llx=0.9050 $lly=0.2450 $urx=0.9050 $ury=0.2450 $lvl=3
*|S (A:19 2.2850 3.8950) // $llx=2.2850 $lly=3.8950 $urx=2.2850 $ury=3.8950 $lvl=3
*|S (A:20 2.2850 2.5450) // $llx=2.2850 $lly=2.5450 $urx=2.2850 $ury=2.5450 $lvl=3
*|S (A:21 1.7550 2.5450) // $llx=1.7550 $lly=2.5450 $urx=1.7550 $ury=2.5450 $lvl=3
*|S (A:22 1.7550 2.4550) // $llx=1.7550 $lly=2.4550 $urx=1.7550 $ury=2.4550 $lvl=3
*|S (A:23 1.7550 2.2900) // $llx=1.7550 $lly=2.2900 $urx=1.7550 $ury=2.2900 $lvl=3
*|S (A:24 1.7650 0.2450) // $llx=1.7650 $lly=0.2450 $urx=1.7650 $ury=0.2450 $lvl=3
*|S (A:25 2.0050 2.4550) // $llx=2.0050 $lly=2.4550 $urx=2.0050 $ury=2.4550 $lvl=2
*|S (A:26 1.8400 2.4550) // $llx=1.8400 $lly=2.4550 $urx=1.8400 $ury=2.4550 $lvl=2
*|S (A:27 1.7550 2.4550) // $llx=1.7550 $lly=2.4550 $urx=1.7550 $ury=2.4550 $lvl=2
*|S (A:28 0.9050 2.4550) // $llx=0.9050 $lly=2.4550 $urx=0.9050 $ury=2.4550 $lvl=2
*|S (A:29 0.7400 2.4550) // $llx=0.7400 $lly=2.4550 $urx=0.7400 $ury=2.4550 $lvl=2
*|S (A:30 1.8400 2.7100) // $llx=1.8400 $lly=2.7100 $urx=1.8400 $ury=2.7100 $lvl=1
*|S (A:31 1.8400 2.4550) // $llx=1.8400 $lly=2.4550 $urx=1.8400 $ury=2.4550 $lvl=1
*|S (A:32 1.8400 1.4700) // $llx=1.8400 $lly=1.4700 $urx=1.8400 $ury=1.4700 $lvl=1
CA1 Mmn3:g VSS! 2.19164e-18 $lvl=3
CA2 Mmn1:g VSS! 4.74371e-18 $lvl=3
CA3 Mmp1:g VSS! 2.23281e-18 $lvl=3
CA4 A:19 VSS! 1.69788e-18 $lvl=3
CA5 A:30 VSS! 9.8974e-18 $lvl=1
CA6 A:32 VSS! 1.18894e-17 $lvl=1
CA7 A:27 VSS! 4.57302e-18 $lvl=2
CA8 A:29 VSS! 4.60038e-18 $lvl=2
CA9 A:26 VSS! 4.33447e-18 $lvl=2
CA10 A:16 VSS! 7.14766e-18 $lvl=3
CA11 A:22 VSS! 8.93529e-18 $lvl=3
CA12 Mmn3:g net144 7.06577e-19 $lvl1=3 $lvl2=2
CA13 Mmn3:g net144:4 5.05591e-19 $lvl1=3 $lvl2=2
CA14 A:27 net127:3 1.17091e-18 $lvl1=2 $lvl2=2
CA15 Mmp1:g net127:4 9.16078e-19 $lvl1=3 $lvl2=2
CA16 Mmp1:g net127 9.05001e-19 $lvl1=3 $lvl2=2
CA17 A:22 net127:4 7.93909e-19 $lvl1=3 $lvl2=2
CA18 A:22 net127:3 7.21659e-19 $lvl1=3 $lvl2=2
CA19 A:16 Mmp2:s 4.54094e-19 $lvl1=3 $lvl2=4
CA20 A:29 net127:3 2.22804e-18 $lvl1=2 $lvl2=2
CA21 Mmp1:g net127:3 6.89362e-17 $lvl1=3 $lvl2=2
CA22 A:27 net127:4 3.51041e-18 $lvl1=2 $lvl2=2
CA23 A:29 net127:4 1.59791e-17 $lvl1=2 $lvl2=2
CA24 A:16 net127:3 2.33115e-18 $lvl1=3 $lvl2=2
CA25 Mmn3:g net144:3 6.3911e-17 $lvl1=3 $lvl2=2
CA26 A:16 net127:4 4.65026e-18 $lvl1=3 $lvl2=2
CA27 A:32 pon:25 5.73094e-18 $lvl1=1 $lvl2=1
CA28 A:32 pon:20 2.0729e-18 $lvl1=1 $lvl2=1
CA29 A:26 pon:20 1.5214e-18 $lvl1=2 $lvl2=1
CA30 A:32 pon:19 1.51282e-18 $lvl1=1 $lvl2=2
CA31 A:32 pon:18 1.5059e-18 $lvl1=1 $lvl2=2
CA32 A:26 pon:22 1.43159e-18 $lvl1=2 $lvl2=1
CA33 A:27 pon:20 1.29663e-18 $lvl1=2 $lvl2=1
CA34 A:27 pon:22 9.47697e-19 $lvl1=2 $lvl2=1
CA35 A:19 pon:11 8.49532e-19 $lvl1=3 $lvl2=2
CA36 Mmn3:g pon:12 7.66921e-19 $lvl1=3 $lvl2=2
CA37 A:32 pon:12 6.76368e-19 $lvl1=1 $lvl2=2
CA38 A:27 pon:11 5.62797e-19 $lvl1=2 $lvl2=2
CA39 A:19 pon:9 1.2779e-16 $lvl1=3 $lvl2=2
CA40 A:32 pon:22 3.09126e-17 $lvl1=1 $lvl2=1
CA41 A:30 pon:20 1.64955e-17 $lvl1=1 $lvl2=1
CA42 A:30 pon:22 1.16206e-17 $lvl1=1 $lvl2=1
CA43 A:32 non:18 5.0459e-18 $lvl1=1 $lvl2=2
CA44 A:26 non:22 4.70783e-18 $lvl1=2 $lvl2=1
CA45 A:32 non:20 3.91869e-18 $lvl1=1 $lvl2=2
CA46 A:29 non:22 3.86762e-18 $lvl1=2 $lvl2=1
CA47 A:27 non:17 3.69666e-18 $lvl1=2 $lvl2=2
CA48 A:32 non:22 2.78384e-18 $lvl1=1 $lvl2=1
CA49 A:32 non:28 2.77336e-18 $lvl1=1 $lvl2=1
CA50 A:22 non:13 2.55237e-18 $lvl1=3 $lvl2=2
CA51 A:22 non:17 1.87393e-18 $lvl1=3 $lvl2=2
CA52 A:27 non:26 1.84821e-18 $lvl1=2 $lvl2=1
CA53 Mmp1:g non:13 1.8287e-18 $lvl1=3 $lvl2=2
CA54 Mmn3:g non:21 1.56427e-18 $lvl1=3 $lvl2=2
CA55 A:27 non:13 1.28973e-18 $lvl1=2 $lvl2=2
CA56 A:29 non:26 1.26298e-18 $lvl1=2 $lvl2=1
CA57 A:26 non:26 1.26077e-18 $lvl1=2 $lvl2=1
CA58 A:22 Mmp2:d 1.2277e-18 $lvl1=3 $lvl2=4
CA59 A:26 non:17 1.16511e-18 $lvl1=2 $lvl2=2
CA60 A:30 non:17 9.33991e-19 $lvl1=1 $lvl2=2
CA61 A:30 non:16 8.08568e-19 $lvl1=1 $lvl2=2
CA62 A:27 non:16 7.9976e-19 $lvl1=2 $lvl2=2
CA63 A:19 non:13 7.73139e-19 $lvl1=3 $lvl2=2
CA64 Mmn3:g non:9 7.71777e-19 $lvl1=3 $lvl2=2
CA65 A:29 non:17 6.88703e-19 $lvl1=2 $lvl2=2
CA66 Mmn3:g non:18 5.9448e-19 $lvl1=3 $lvl2=2
CA67 A:30 non:13 5.87539e-19 $lvl1=1 $lvl2=2
CA68 A:22 non:22 5.85472e-19 $lvl1=3 $lvl2=1
CA69 A:32 non:29 5.21496e-19 $lvl1=1 $lvl2=1
CA70 Mmn1:g non:21 5.21416e-19 $lvl1=3 $lvl2=2
CA71 A:22 non:21 5.06077e-19 $lvl1=3 $lvl2=2
CA72 A:30 non:26 1.68579e-17 $lvl1=1 $lvl2=1
CA73 A:32 non:21 1.06181e-17 $lvl1=1 $lvl2=2
CA74 Mmn1:g non:9 6.93823e-17 $lvl1=3 $lvl2=2
CA75 A:32 non:26 9.74281e-17 $lvl1=1 $lvl2=1
CA76 A:32 non:27 7.93994e-18 $lvl1=1 $lvl2=1
CA77 A:30 non:22 6.66138e-17 $lvl1=1 $lvl2=1
CA78 A:27 non:22 7.45551e-18 $lvl1=2 $lvl2=1
CA79 A:32 OEb:21 2.42295e-18 $lvl1=1 $lvl2=2
CA80 A:16 OEb:9 2.27686e-18 $lvl1=3 $lvl2=3
CA81 A:22 OEb:9 2.25889e-18 $lvl1=3 $lvl2=3
CA82 A:29 OEb:25 2.23349e-18 $lvl1=2 $lvl2=1
CA83 A:22 OEb:8 1.72138e-18 $lvl1=3 $lvl2=3
CA84 A:29 OEb:27 1.68732e-18 $lvl1=2 $lvl2=1
CA85 A:16 OEb:8 1.52047e-18 $lvl1=3 $lvl2=3
CA86 A:29 OEb:16 9.30885e-19 $lvl1=2 $lvl2=2
CA87 Mmn1:g OEb:17 8.89644e-19 $lvl1=3 $lvl2=2
CA88 A:32 OEb:27 8.72137e-19 $lvl1=1 $lvl2=1
CA89 A:16 OEb:24 8.60685e-19 $lvl1=3 $lvl2=2
CA90 A:16 OEb:21 8.28116e-19 $lvl1=3 $lvl2=2
CA91 A:16 OEb:25 7.85472e-19 $lvl1=3 $lvl2=1
CA92 A:27 OEb:9 7.71015e-19 $lvl1=2 $lvl2=3
CA93 A:27 OEb:8 7.37589e-19 $lvl1=2 $lvl2=3
CA94 A:29 OEb:9 7.0158e-19 $lvl1=2 $lvl2=3
CA95 A:16 OEb:16 6.59822e-19 $lvl1=3 $lvl2=2
CA96 Mmp1:g OEb:12 6.2072e-19 $lvl1=3 $lvl2=2
CA97 A:16 OEb:12 6.19984e-19 $lvl1=3 $lvl2=2
CA98 A:29 OEb:8 5.76569e-19 $lvl1=2 $lvl2=3
CA99 Mmn1:g OEb:9 5.70203e-19 $lvl1=3 $lvl2=3
CA100 A:30 OEb:25 4.94692e-19 $lvl1=1 $lvl2=1
CA101 A:16 OEb:27 4.7151e-19 $lvl1=3 $lvl2=1
CA102 A:32 OEb:25 4.68345e-19 $lvl1=1 $lvl2=1
CA103 Mmn1:g VSS!:9 6.36179e-18 $lvl1=3 $lvl2=2
CA104 Mmn3:g VSS!:14 6.72922e-17 $lvl1=3 $lvl2=2
CA105 Mmn3:g VSS!:8 8.27943e-18 $lvl1=3 $lvl2=2
CA106 Mmn1:g VSS!:16 6.79288e-17 $lvl1=3 $lvl2=2
CA107 A:32 VDD! 5.78335e-18 $lvl1=1 $lvl2=1
CA108 A:30 VDD! 4.64822e-18 $lvl1=1 $lvl2=1
CA109 A:22 VDD!:12 4.32334e-18 $lvl1=3 $lvl2=2
CA110 A:27 VDD!:12 4.26841e-18 $lvl1=2 $lvl2=2
CA111 A:30 VDD!:12 3.85043e-18 $lvl1=1 $lvl2=2
CA112 A:29 VDD!:3 3.80624e-18 $lvl1=2 $lvl2=2
CA113 A:16 VDD!:3 3.55752e-18 $lvl1=3 $lvl2=2
CA114 A:30 VDD!:19 2.65224e-18 $lvl1=1 $lvl2=1
CA115 A:29 VDD! 2.29733e-18 $lvl1=2 $lvl2=1
CA116 A:26 VDD!:12 2.17796e-18 $lvl1=2 $lvl2=2
CA117 A:27 VDD! 2.03433e-18 $lvl1=2 $lvl2=1
CA118 A:19 VDD!:16 1.88599e-18 $lvl1=3 $lvl2=2
CA119 A:19 VDD!:13 1.37617e-18 $lvl1=3 $lvl2=2
CA120 A:32 VDD!:19 1.15513e-18 $lvl1=1 $lvl2=1
CA121 A:22 Mmp3:s 9.29786e-19 $lvl1=3 $lvl2=4
CA122 A:19 VDD!:4 7.74638e-18 $lvl1=3 $lvl2=2
CA123 A:19 VDD!:12 1.32626e-16 $lvl1=3 $lvl2=2
CA124 Mmp1:g VDD!:3 1.3144e-16 $lvl1=3 $lvl2=2
CA125 A:16 VDD! 1.43456e-17 $lvl1=3 $lvl2=1
CA126 Mmp1:g VDD!:4 9.88959e-18 $lvl1=3 $lvl2=2
CA127 A:22 VDD! 1.45896e-17 $lvl1=3 $lvl2=1
CA128 A:16 OE:17 6.59958e-18 $lvl1=3 $lvl2=3
CA129 A:22 OE:23 5.39049e-18 $lvl1=3 $lvl2=3