*
*|DSPF 1.5
*
*|DATE "Wed Jan  8 18:36:21 2025"
*|VENDOR "Cadence Design Systems"
*|PROGRAM "Cadence Quantus Extraction"
*|VERSION "22.1.0-p089 Linux 64 bit - (Thu Jan 19 11:47:08 PST 2023)"
*|DESIGN TLATX1_HS
*|DIVIDER /
*|DELIMITER :
*|DeviceFingerDelim "@"
*|BUSBIT []
*|GLOBAL_TEMPERATURE 25
*|OPERATING_TEMPERATURE 25

** *VIA_COVERAGE_CODES
** *index FF FS FP FU SF SS SP SU PF PS PP PU UF US UP UU X_by_Y
** * "FF" stands for Full landing and Full coverage
** *0 0 0 0 0 0 0 0 0 0 0 0 0 0 0 0 0
** *1 0 0 0 0 0 0 0 0 0 0 0 0 0 0 0 1 1x1
** *2 0 0 0 0 0 0 0 0 0 0 0 0 0 0 1 0 1x1
** *3 0 0 0 0 0 0 0 0 0 0 0 0 0 1 0 0 1x1
** *4 0 0 0 0 0 0 0 0 0 0 0 0 1 0 0 0 1x1
** *5 0 0 0 0 0 0 0 0 0 0 0 1 0 0 0 0 1x1
** *6 0 0 0 0 0 0 0 0 0 0 1 0 0 0 0 0 1x1
** *7 0 0 0 0 0 0 0 0 0 1 0 0 0 0 0 0 1x1
** *8 0 0 0 0 0 0 0 0 1 0 0 0 0 0 0 0 1x1
** *9 0 0 0 0 0 0 0 1 0 0 0 0 0 0 0 0 1x1
** *10 0 0 0 0 0 0 1 0 0 0 0 0 0 0 0 0 1x1
** *11 0 0 0 0 0 1 0 0 0 0 0 0 0 0 0 0 1x1
** *12 0 0 0 0 1 0 0 0 0 0 0 0 0 0 0 0 1x1
** *13 0 0 0 1 0 0 0 0 0 0 0 0 0 0 0 0 1x1
** *14 0 0 1 0 0 0 0 0 0 0 0 0 0 0 0 0 1x1
** *15 0 1 0 0 0 0 0 0 0 0 0 0 0 0 0 0 1x1
** *16 1 0 0 0 0 0 0 0 0 0 0 0 0 0 0 0 1x1

** *RESISTOR_TYPES
** *1 SHORTING_ELEMENT
** *2 PRES_NG
** *3 PRES_PG
** *4 PRES_NF
** *5 PRES_PF
** *6 TCN_NDIFF
** *7 TCN_PDIFF
** *8 TCN_NFIELD
** *9 TCN_PFIELD
** *10 QUALITY_EXTRACTED
** *11 GCNLAND
** *12 TCNLAND
** *13 DUMMY
** *14 RSD
** *15 BRIDGE

** *RESISTOR_CURRENT_DIRECTION
** *0 HORIZONTAL
** *1 VERTICAL
** *2 45 DEGREE

** QRC_TECH_DIR /vols/wfo_devel/projects/reference_SKY130/tech/sky130_release_0.0.4/quantus/extraction/typical 
** HIERARCHICAL_SPLIT_PINS_DELIMITER '%'
** caps2d version: 10
*
.SUBCKT  TLATX1_HS D G Q QN
*
*Net Section
*
*|GROUND_NET VSS!
*
*LAYER_MAP
*0 none
*1 metal1
*2 li
*3 poly
*4 diff
*5 licon_diff
*6 mcon
*7 licon
*8 FOX

*|NET Qint 3.85362e-15
*|I (Mmp55:g Mmp55 g X 0 4.5650 3.0150) // $llx=4.5650 $lly=3.0150 $urx=4.5650 $ury=3.0150 $lvl=3
*|I (Mmp30:d Mmp30 d X 0 3.6905 3.3550) // $llx=3.6905 $lly=3.3550 $urx=3.6905 $ury=3.3550 $lvl=4
*|I (Mmp35:g Mmp35 g X 0 2.1950 3.3550) // $llx=2.1950 $lly=3.3550 $urx=2.1950 $ury=3.3550 $lvl=3
*|I (Mmp57:g Mmp57 g X 0 6.1750 3.0150) // $llx=6.1750 $lly=3.0150 $urx=6.1750 $ury=3.0150 $lvl=3
*|I (Mmn55:g Mmn55 g X 0 4.5650 0.7750) // $llx=4.5650 $lly=0.7750 $urx=4.5650 $ury=0.7750 $lvl=3
*|I (Mmn30:d Mmn30 d X 0 3.6905 0.6075) // $llx=3.6905 $lly=0.6075 $urx=3.6905 $ury=0.6075 $lvl=4
*|I (Mmn57:g Mmn57 g X 0 6.1750 0.7750) // $llx=6.1750 $lly=0.7750 $urx=6.1750 $ury=0.7750 $lvl=3
*|I (Mmn35:g Mmn35 g X 0 2.1950 0.6075) // $llx=2.1950 $lly=0.6075 $urx=2.1950 $ury=0.6075 $lvl=3
*|S (Qint 2.1950 0.6075) // $llx=2.1950 $lly=0.6075 $urx=2.1950 $ury=0.6075 $lvl=3
*|S (Qint:22 2.1950 3.8950) // $llx=2.1950 $lly=3.8950 $urx=2.1950 $ury=3.8950 $lvl=3
*|S (Qint:23 2.2050 1.4350) // $llx=2.2050 $lly=1.4350 $urx=2.2050 $ury=1.4350 $lvl=3
*|S (Qint:24 2.2050 1.2700) // $llx=2.2050 $lly=1.2700 $urx=2.2050 $ury=1.2700 $lvl=3
*|S (Qint:25 2.1950 0.2450) // $llx=2.1950 $lly=0.2450 $urx=2.1950 $ury=0.2450 $lvl=3
*|S (Qint:26 4.5650 3.8950) // $llx=4.5650 $lly=3.8950 $urx=4.5650 $ury=3.8950 $lvl=3
*|S (Qint:27 4.5650 1.5695) // $llx=4.5650 $lly=1.5695 $urx=4.5650 $ury=1.5695 $lvl=3
*|S (Qint:28 4.4750 1.4350) // $llx=4.4750 $lly=1.4350 $urx=4.4750 $ury=1.4350 $lvl=3
*|S (Qint:29 4.5650 1.3000) // $llx=4.5650 $lly=1.3000 $urx=4.5650 $ury=1.3000 $lvl=3
*|S (Qint:30 4.5650 0.2450) // $llx=4.5650 $lly=0.2450 $urx=4.5650 $ury=0.2450 $lvl=3
*|S (Qint:31 6.1750 3.8950) // $llx=6.1750 $lly=3.8950 $urx=6.1750 $ury=3.8950 $lvl=3
*|S (Qint:32 6.2650 1.4350) // $llx=6.2650 $lly=1.4350 $urx=6.2650 $ury=1.4350 $lvl=3
*|S (Qint:33 6.1750 1.3000) // $llx=6.1750 $lly=1.3000 $urx=6.1750 $ury=1.3000 $lvl=3
*|S (Qint:34 6.1750 0.2450) // $llx=6.1750 $lly=0.2450 $urx=6.1750 $ury=0.2450 $lvl=3
*|S (Qint:35 3.8300 3.7450) // $llx=3.8300 $lly=3.7450 $urx=3.8300 $ury=3.7450 $lvl=2
*|S (Qint:37 3.8300 3.3550) // $llx=3.8300 $lly=3.3550 $urx=3.8300 $ury=3.3550 $lvl=2
*|S (Qint:38 3.8300 3.0900) // $llx=3.8300 $lly=3.0900 $urx=3.8300 $ury=3.0900 $lvl=2
*|S (Qint:39 3.8300 0.8200) // $llx=3.8300 $lly=0.8200 $urx=3.8300 $ury=0.8200 $lvl=2
*|S (Qint:40 3.8300 0.6550) // $llx=3.8300 $lly=0.6550 $urx=3.8300 $ury=0.6550 $lvl=2
*|S (Qint:42 3.8300 0.6050) // $llx=3.8300 $lly=0.6050 $urx=3.8300 $ury=0.6050 $lvl=2
*|S (Qint:43 3.8300 0.3950) // $llx=3.8300 $lly=0.3950 $urx=3.8300 $ury=0.3950 $lvl=2
*|S (Qint:44 6.4500 1.4350) // $llx=6.4500 $lly=1.4350 $urx=6.4500 $ury=1.4350 $lvl=2
*|S (Qint:45 6.2650 1.4350) // $llx=6.2650 $lly=1.4350 $urx=6.2650 $ury=1.4350 $lvl=2
*|S (Qint:46 4.4750 1.4350) // $llx=4.4750 $lly=1.4350 $urx=4.4750 $ury=1.4350 $lvl=2
*|S (Qint:47 3.8300 1.4350) // $llx=3.8300 $lly=1.4350 $urx=3.8300 $ury=1.4350 $lvl=2
*|S (Qint:48 2.2050 1.4350) // $llx=2.2050 $lly=1.4350 $urx=2.2050 $ury=1.4350 $lvl=2
*|S (Qint:49 1.9800 1.4350) // $llx=1.9800 $lly=1.4350 $urx=1.9800 $ury=1.4350 $lvl=2
*|S (Qint:50 3.8300 3.2350) // $llx=3.8300 $lly=3.2350 $urx=3.8300 $ury=3.2350 $lvl=1
*|S (Qint:51 3.8300 3.0900) // $llx=3.8300 $lly=3.0900 $urx=3.8300 $ury=3.0900 $lvl=1
*|S (Qint:52 3.8300 1.4350) // $llx=3.8300 $lly=1.4350 $urx=3.8300 $ury=1.4350 $lvl=1
*|S (Qint:53 3.8300 0.6550) // $llx=3.8300 $lly=0.6550 $urx=3.8300 $ury=0.6550 $lvl=1
*|S (Qint:54 3.8300 0.5100) // $llx=3.8300 $lly=0.5100 $urx=3.8300 $ury=0.5100 $lvl=1
CI1 Mmn57:g VSS! 1.44506e-18 $lvl=3
CI2 Mmn30:d VSS! 1.16801e-18 $lvl=4
CI3 Mmp30:d VSS! 1.23552e-18 $lvl=4
CI4 Qint:31 VSS! 1.65647e-18 $lvl=3
CI5 Qint:26 VSS! 2.47324e-18 $lvl=3
CI6 Qint:30 VSS! 1.2248e-18 $lvl=3
CI7 Qint:22 VSS! 3.07828e-18 $lvl=3
CI8 Qint:52 VSS! 8.69806e-18 $lvl=1
CI9 Qint:50 VSS! 8.81772e-18 $lvl=1
CI10 Qint:54 VSS! 5.26448e-18 $lvl=1
CI11 Qint:48 VSS! 1.24078e-17 $lvl=2
CI12 Qint:46 VSS! 1.1962e-17 $lvl=2
CI13 Qint:44 VSS! 1.08297e-17 $lvl=2
CI14 Qint:49 VSS! 6.90222e-18 $lvl=2
CI15 Qint:39 VSS! 9.01861e-18 $lvl=2
CI16 Qint:43 VSS! 2.01841e-18 $lvl=2
CI17 Qint:35 VSS! 4.23444e-18 $lvl=2
CI18 Qint:40 VSS! 1.23597e-18 $lvl=2
CI19 Qint:47 VSS! 2.09854e-17 $lvl=2
CI20 Qint:38 VSS! 1.62832e-18 $lvl=2
CI21 Qint:23 VSS! 2.38553e-17 $lvl=3
CI22 Qint:28 VSS! 1.98284e-17 $lvl=3
CI23 Qint:32 VSS! 1.88993e-17 $lvl=3
CI24 Qint VSS! 2.31915e-18 $lvl=3
CI25 Qint:22 n26:3 1.29512e-16 $lvl1=3 $lvl2=2
CI26 Qint:23 n25:3 9.3722e-19 $lvl1=3 $lvl2=2
CI27 Qint:23 Mmn35:d 4.38661e-19 $lvl1=3 $lvl2=4
CI28 Qint n25:4 4.28685e-19 $lvl1=3 $lvl2=2
CI29 Qint n25:3 6.60074e-17 $lvl1=3 $lvl2=2
CI30 Qint:52 Qbint:30 9.34581e-18 $lvl1=1 $lvl2=1
CI31 Qint:54 Qbint:30 8.50886e-18 $lvl1=1 $lvl2=1
CI32 Qint:28 Qbint:26 6.6715e-18 $lvl1=3 $lvl2=2
CI33 Qint:52 Qbint:28 5.71732e-18 $lvl1=1 $lvl2=1
CI34 Qint:28 Qbint:18 5.48528e-18 $lvl1=3 $lvl2=2
CI35 Qint:46 Qbint:19 4.8032e-18 $lvl1=2 $lvl2=2
CI36 Qint:32 Qbint:10 3.84616e-18 $lvl1=3 $lvl2=3
CI37 Qint:50 Qbint:29 3.77991e-18 $lvl1=1 $lvl2=1
CI38 Qint:46 Qbint:10 2.61647e-18 $lvl1=2 $lvl2=3
CI39 Qint:32 Qbint:23 2.27292e-18 $lvl1=3 $lvl2=2
CI40 Qint:44 Qbint:12 1.94941e-18 $lvl1=2 $lvl2=3
CI41 Qint:32 Qbint:12 1.89203e-18 $lvl1=3 $lvl2=3
CI42 Qint:47 Qbint:29 1.8057e-18 $lvl1=2 $lvl2=1
CI43 Qint:50 Qbint:27 1.63479e-18 $lvl1=1 $lvl2=1
CI44 Qint:47 Qbint:26 1.59552e-18 $lvl1=2 $lvl2=2
CI45 Qint:50 Qbint:16 1.54119e-18 $lvl1=1 $lvl2=2
CI46 Qint:54 Qbint:29 1.48279e-18 $lvl1=1 $lvl2=1
CI47 Qint:26 Qbint:26 1.27495e-18 $lvl1=3 $lvl2=2
CI48 Qint:52 Qbint:26 1.21824e-18 $lvl1=1 $lvl2=2
CI49 Qint:28 Mmn55:d 1.18282e-18 $lvl1=3 $lvl2=4
CI50 Qint:44 Qbint:26 1.1638e-18 $lvl1=2 $lvl2=2
CI51 Qint:35 Qbint:28 1.15767e-18 $lvl1=2 $lvl2=1
CI52 Qint:31 Qbint:10 1.15569e-18 $lvl1=3 $lvl2=3
CI53 Qint:47 Qbint:30 1.11548e-18 $lvl1=2 $lvl2=1
CI54 Qint:44 Qbint:18 1.02789e-18 $lvl1=2 $lvl2=2
CI55 Qint:26 Qbint:17 9.65478e-19 $lvl1=3 $lvl2=2
CI56 Qint:52 Qbint:25 8.495e-19 $lvl1=1 $lvl2=2
CI57 Qint:46 Mmn55:d 7.40564e-19 $lvl1=2 $lvl2=4
CI58 Qint:28 Qbint:29 7.37748e-19 $lvl1=3 $lvl2=1
CI59 Qint:30 Qbint:22 7.27624e-19 $lvl1=3 $lvl2=2
CI60 Qint:50 Qbint:30 7.23009e-19 $lvl1=1 $lvl2=1
CI61 Qint:28 Qbint:25 6.33782e-19 $lvl1=3 $lvl2=2
CI62 Mmn57:g Qbint:10 6.132e-19 $lvl1=3 $lvl2=3
CI63 Qint:46 Qbint:17 6.02766e-19 $lvl1=2 $lvl2=2
CI64 Qint:40 Qbint:30 5.70478e-19 $lvl1=2 $lvl2=1
CI65 Qint:50 Qbint:13 5.63989e-19 $lvl1=1 $lvl2=2
CI66 Qint:46 Qbint:12 5.5457e-19 $lvl1=2 $lvl2=3
CI67 Qint:54 Qbint:19 5.31256e-19 $lvl1=1 $lvl2=2
CI68 Qint:44 Qbint:30 5.29901e-19 $lvl1=2 $lvl2=1
CI69 Qint:28 Qbint:13 5.22529e-19 $lvl1=3 $lvl2=2
CI70 Qint:52 Qbint:17 5.2094e-19 $lvl1=1 $lvl2=2
CI71 Qint:31 Qbint:23 5.15156e-19 $lvl1=3 $lvl2=2
CI72 Qint:46 Qbint:28 5.0028e-19 $lvl1=2 $lvl2=1
CI73 Qint:44 Qbint:29 4.82868e-19 $lvl1=2 $lvl2=1
CI74 Qint:47 Qbint:25 4.52046e-19 $lvl1=2 $lvl2=2
CI75 Qint:54 Qbint:31 4.45191e-19 $lvl1=1 $lvl2=1
CI76 Qint:32 Qbint:8 4.37666e-19 $lvl1=3 $lvl2=3
CI77 Qint:28 Qbint:17 4.28642e-19 $lvl1=3 $lvl2=2
CI78 Qint:52 Qbint:19 4.25277e-19 $lvl1=1 $lvl2=2
CI79 Qint:35 Qbint:13 4.07359e-19 $lvl1=2 $lvl2=2
CI80 Qint:30 Qbint:26 3.89875e-19 $lvl1=3 $lvl2=2
CI81 Qint:38 Qbint:28 3.68231e-19 $lvl1=2 $lvl2=1
CI82 Qint:46 Qbint:13 3.61112e-19 $lvl1=2 $lvl2=2
CI83 Qint:28 Qbint:19 3.60863e-19 $lvl1=3 $lvl2=2
CI84 Qint:28 Qbint:10 3.54952e-19 $lvl1=3 $lvl2=3
CI85 Qint:54 Qbint:28 3.42647e-19 $lvl1=1 $lvl2=1
CI86 Qint:52 Qbint:31 3.38982e-19 $lvl1=1 $lvl2=1
CI87 Qint:52 Qbint:16 3.34894e-19 $lvl1=1 $lvl2=2
CI88 Qint:46 Qbint:30 1.09832e-17 $lvl1=2 $lvl2=1
CI89 Qint:44 Qbint:23 3.3378e-17 $lvl1=2 $lvl2=2
CI90 Qint:26 Qbint:13 2.57516e-16 $lvl1=3 $lvl2=2
CI91 Qint:46 Qbint:26 4.24124e-17 $lvl1=2 $lvl2=2
CI92 Qint:30 Qbint:18 1.26173e-16 $lvl1=3 $lvl2=2
CI93 Qint:46 Qbint:18 2.34336e-17 $lvl1=2 $lvl2=2
CI94 Qint:44 Qbint:10 1.36351e-17 $lvl1=2 $lvl2=3
CI95 Qint:46 Qbint:25 1.24299e-17 $lvl1=2 $lvl2=2
CI96 Qint:46 Qbint:29 1.31548e-17 $lvl1=2 $lvl2=1
CI97 Qint:46 Qbint:23 1.14569e-17 $lvl1=2 $lvl2=2
CI98 Qint:52 Qbint:29 1.54796e-17 $lvl1=1 $lvl2=1
CI99 Qint:50 Qbint:28 1.84773e-17 $lvl1=1 $lvl2=1
CI100 Qint:47 Gbb:24 7.84656e-18 $lvl1=2 $lvl2=2
CI101 Qint:49 Gbb:24 5.60117e-18 $lvl1=2 $lvl2=2
CI102 Qint:47 Gbb:32 5.00581e-18 $lvl1=2 $lvl2=1
CI103 Qint:23 Gbb:22 4.26529e-18 $lvl1=3 $lvl2=2
CI104 Qint:48 Gbb:29 2.30682e-18 $lvl1=2 $lvl2=1
CI105 Qint:48 Gbb:22 2.26273e-18 $lvl1=2 $lvl2=2
CI106 Qint:52 Gbb:32 2.04114e-18 $lvl1=1 $lvl2=1
CI107 Qint:50 Gbb:29 2.01942e-18 $lvl1=1 $lvl2=1
CI108 Qint Gbb:24 1.94567e-18 $lvl1=3 $lvl2=2
CI109 Qint:47 Gbb:28 1.85639e-18 $lvl1=2 $lvl2=2
CI110 Qint:52 Gbb:29 1.70244e-18 $lvl1=1 $lvl2=1
CI111 Qint:22 Gbb:13 1.67017e-18 $lvl1=3 $lvl2=3
CI112 Qint:22 Gbb:20 1.64079e-18 $lvl1=3 $lvl2=2
CI113 Qint:22 Gbb:17 1.41359e-18 $lvl1=3 $lvl2=2
CI114 Qint:23 Gbb:10 1.18933e-18 $lvl1=3 $lvl2=3
CI115 Qint:47 Gbb:29 1.09159e-18 $lvl1=2 $lvl2=1
CI116 Qint:49 Gbb:32 9.88768e-19 $lvl1=2 $lvl2=1
CI117 Qint Gbb:22 9.87957e-19 $lvl1=3 $lvl2=2
CI118 Qint:48 Gbb:28 8.9828e-19 $lvl1=2 $lvl2=2
CI119 Qint:54 Gbb:32 7.94757e-19 $lvl1=1 $lvl2=1
CI120 Qint:50 Gbb:32 7.58849e-19 $lvl1=1 $lvl2=1
CI121 Qint:23 Gbb:13 7.1361e-19 $lvl1=3 $lvl2=3
CI122 Qint:22 Gbb:14 6.92849e-19 $lvl1=3 $lvl2=2
CI123 Qint:47 Gbb:17 6.86221e-19 $lvl1=2 $lvl2=2
CI124 Qint Gbb:28 5.86193e-19 $lvl1=3 $lvl2=2
CI125 Qint:35 Gbb:14 5.45387e-19 $lvl1=2 $lvl2=2
CI126 Qint:49 Gbb:10 4.98684e-19 $lvl1=2 $lvl2=3
CI127 Qint:23 Gbb:20 4.92674e-19 $lvl1=3 $lvl2=2
CI128 Qint:50 Gbb:17 4.63757e-19 $lvl1=1 $lvl2=2
CI129 Qint:47 Mmn21:d 4.61103e-19 $lvl1=2 $lvl2=4
CI130 Qint:23 Gbb:24 1.04866e-17 $lvl1=3 $lvl2=2
CI131 Qint:49 Gbb:22 1.13859e-17 $lvl1=2 $lvl2=2
CI132 Qint:48 Gbb:32 1.6531e-17 $lvl1=2 $lvl2=1
CI133 Qint:48 Gbb:24 5.73616e-17 $lvl1=2 $lvl2=2
CI134 Mmn57:g VSS!:4 9.91268e-18 $lvl1=3 $lvl2=2
CI135 Qint:30 VSS!:6 9.54533e-18 $lvl1=3 $lvl2=2
CI136 Qint:54 VSS!:11 8.04213e-18 $lvl1=1 $lvl2=2
CI137 Qint:40 VSS!:18 7.78376e-18 $lvl1=2 $lvl2=2
CI138 Qint:47 VSS!:18 7.4426e-18 $lvl1=2 $lvl2=2
CI139 Qint VSS!:13 6.86269e-18 $lvl1=3 $lvl2=2
CI140 Qint:40 VSS!:11 5.8751e-18 $lvl1=2 $lvl2=2
CI141 Qint:43 VSS!:18 5.60366e-18 $lvl1=2 $lvl2=2
CI142 Qint:52 VSS!:25 5.25473e-18 $lvl1=1 $lvl2=1
CI143 Qint:32 VSS!:1 5.1843e-18 $lvl1=3 $lvl2=2
CI144 Qint:54 VSS!:6 4.36023e-18 $lvl1=1 $lvl2=2
CI145 Mmn30:d VSS!:6 4.02539e-18 $lvl1=4 $lvl2=2
CI146 Qint:40 VSS!:6 3.92919e-18 $lvl1=2 $lvl2=2
CI147 Qint:52 VSS!:11 3.63556e-18 $lvl1=1 $lvl2=2
CI148 Qint:43 VSS!:11 3.61946e-18 $lvl1=2 $lvl2=2
CI149 Mmn30:d VSS!:11 3.44633e-18 $lvl1=4 $lvl2=2
CI150 Qint:54 VSS!:18 3.17224e-18 $lvl1=1 $lvl2=2
CI151 Qint:39 Mmn55:s 2.54978e-18 $lvl1=2 $lvl2=4
CI152 Qint:28 Mmn55:s 2.34544e-18 $lvl1=3 $lvl2=4
CI153 Qint:43 VSS!:25 2.33218e-18 $lvl1=2 $lvl2=1
CI154 Qint:40 VSS!:25 2.09601e-18 $lvl1=2 $lvl2=1
CI155 Qint:50 VSS!:25 1.6366e-18 $lvl1=1 $lvl2=1
CI156 Qint:39 VSS!:7 1.25211e-18 $lvl1=2 $lvl2=4
CI157 Qint:52 VSS!:18 1.19063e-18 $lvl1=1 $lvl2=2
CI158 Qint VSS!:21 6.79518e-17 $lvl1=3 $lvl2=2
CI159 Qint:39 VSS!:18 2.10775e-17 $lvl1=2 $lvl2=2
CI160 Mmn57:g VSS!:1 1.28552e-16 $lvl1=3 $lvl2=2
CI161 Qint:39 VSS!:6 1.05758e-17 $lvl1=2 $lvl2=2
CI162 Qint:39 VSS!:11 2.47141e-17 $lvl1=2 $lvl2=2
CI163 Qint:54 VSS!:25 3.47628e-17 $lvl1=1 $lvl2=1
CI164 Qint:30 VSS!:11 1.26761e-16 $lvl1=3 $lvl2=2
CI165 Qint:28 VSS!:11 1.14447e-17 $lvl1=3 $lvl2=2
CI166 Qint:47 VSS!:11 1.00121e-17 $lvl1=2 $lvl2=2
CI167 Qint:44 VSS!:1 2.41035e-17 $lvl1=2 $lvl2=2
CI168 Qint:43 VSS!:6 1.59521e-17 $lvl1=2 $lvl2=2
CI169 Qint:46 VSS!:11 1.87171e-17 $lvl1=2 $lvl2=2
ReI201 Qint:50 Qint:51 0.078804 $metal1  $L=0.145 $W=0.230000 $SI_W=0.23 $TYPE=10 $DIR=1 $LLX=3.715000 $LLY=3.090000 $URX=3.945000 $URY=3.235000 $lvl=1
ReI202 Qint:51 Qint:52 0.899457 $metal1  $L=1.655 $W=0.230000 $SI_W=0.23 $TYPE=10 $DIR=1 $LLX=3.715000 $LLY=1.435000 $URX=3.945000 $URY=3.090000 $lvl=1
ReI203 Qint:52 Qint:53 0.423913 $metal1  $L=0.78 $W=0.230000 $SI_W=0.23 $TYPE=10 $DIR=1 $LLX=3.715000 $LLY=0.655000 $URX=3.945000 $URY=1.435000 $lvl=1
ReI204 Qint:53 Qint:54 0.078804 $metal1  $L=0.145 $W=0.230000 $SI_W=0.23 $TYPE=10 $DIR=1 $LLX=3.715000 $LLY=0.510000 $URX=3.945000 $URY=0.655000 $lvl=1
RfI205 Qint:35 Qint:37 29.364706 $li  $L=0.39 $W=0.170000 $SI_W=0.17 $TYPE=10 $DIR=1 $LLX=3.745000 $LLY=3.355000 $URX=3.915000 $URY=3.745000 $lvl=2
RfI206 Qint:37 Qint:38 19.952942 $li  $L=0.265 $W=0.170000 $SI_W=0.17 $TYPE=10 $DIR=1 $LLX=3.745000 $LLY=3.090000 $URX=3.915000 $URY=3.355000 $lvl=2
RfI207 Qint:39 Qint:40 12.423529 $li  $L=0.165 $W=0.170000 $SI_W=0.17 $TYPE=10 $DIR=1 $LLX=3.745000 $LLY=0.655000 $URX=3.915000 $URY=0.820000 $lvl=2
RfI208 Qint:40 Qint:42 3.764706 $li  $L=0.05 $W=0.170000 $SI_W=0.17 $TYPE=10 $DIR=1 $LLX=3.745000 $LLY=0.605000 $URX=3.915000 $URY=0.655000 $lvl=2
RfI209 Qint:42 Qint:43 15.811765 $li  $L=0.21 $W=0.170000 $SI_W=0.17 $TYPE=10 $DIR=1 $LLX=3.745000 $LLY=0.395000 $URX=3.915000 $URY=0.605000 $lvl=2
RfI210 Qint:44 Qint:45 13.929413 $li  $L=0.185 $W=0.170000 $SI_W=0.17 $TYPE=10 $DIR=0 $LLX=6.265000 $LLY=1.350000 $URX=6.450000 $URY=1.520000 $lvl=2
RfI211 Qint:45 Qint:46 134.776459 $li  $L=1.79 $W=0.170000 $SI_W=0.17 $TYPE=10 $DIR=0 $LLX=4.475000 $LLY=1.350000 $URX=6.265000 $URY=1.520000 $lvl=2
RfI212 Qint:46 Qint:47 48.564705 $li  $L=0.645 $W=0.170000 $SI_W=0.17 $TYPE=10 $DIR=0 $LLX=3.830000 $LLY=1.350000 $URX=4.475000 $URY=1.520000 $lvl=2
RfI213 Qint:47 Qint:48 122.352943 $li  $L=1.625 $W=0.170000 $SI_W=0.17 $TYPE=10 $DIR=0 $LLX=2.205000 $LLY=1.350000 $URX=3.830000 $URY=1.520000 $lvl=2
RfI214 Qint:48 Qint:49 16.941177 $li  $L=0.225 $W=0.170000 $SI_W=0.17 $TYPE=10 $DIR=0 $LLX=1.980000 $LLY=1.350000 $URX=2.205000 $URY=1.520000 $lvl=2
RgI215 Qint:22 Mmp35:g 173.519989 $poly  $L=0.54 $W=0.150000 $SI_W=0.15 $TYPE=10 $DIR=1 $LLX=2.120000 $LLY=3.355000 $URX=2.270000 $URY=3.895000 $lvl=3
RgI216 Mmp35:g Qint:23 593.395569 $poly  $L=1.92 $W=0.150000 $SI_W=0.15 $TYPE=10 $DIR=1 $LLX=2.120000 $LLY=1.435000 $URX=2.270000 $URY=3.355000 $lvl=3
RgI217 Qint:23 Qint:24 34.134449 $poly  $L=0.1645 $W=0.270000 $SI_W=0.27 $TYPE=10 $DIR=1 $LLX=2.070000 $LLY=1.270500 $URX=2.340000 $URY=1.435000 $lvl=3
RgI218 Qint:24 Qint 212.927963 $poly  $L=0.6625 $W=0.150000 $SI_W=0.15 $TYPE=10 $DIR=1 $LLX=2.120000 $LLY=0.607500 $URX=2.270000 $URY=1.270000 $lvl=3
RgI219 Qint Qint:25 116.483322 $poly  $L=0.3625 $W=0.150000 $SI_W=0.15 $TYPE=10 $DIR=1 $LLX=2.120000 $LLY=0.245000 $URX=2.270000 $URY=0.607500 $lvl=3
RgI220 Qint:26 Mmp55:g 282.773346 $poly  $L=0.88 $W=0.150000 $SI_W=0.15 $TYPE=10 $DIR=1 $LLX=4.490000 $LLY=3.015000 $URX=4.640000 $URY=3.895000 $lvl=3
RgI221 Mmp55:g Qint:27 464.363190 $poly  $L=1.445 $W=0.150000 $SI_W=0.15 $TYPE=10 $DIR=1 $LLX=4.490000 $LLY=1.569500 $URX=4.640000 $URY=3.014500 $lvl=3
RgI222 Qint:27 Qint:28 31.545456 $poly  $L=0.1345 $W=0.330000 $SI_W=0.33 $TYPE=10 $DIR=1 $LLX=4.400000 $LLY=1.435000 $URX=4.730000 $URY=1.569500 $lvl=3
RgI223 Qint:28 Qint:29 31.545456 $poly  $L=0.1345 $W=0.330000 $SI_W=0.33 $TYPE=10 $DIR=1 $LLX=4.310000 $LLY=1.300500 $URX=4.640000 $URY=1.435000 $lvl=3
RgI224 Qint:29 Mmn55:g 168.736511 $poly  $L=0.525 $W=0.150000 $SI_W=0.15 $TYPE=10 $DIR=1 $LLX=4.490000 $LLY=0.775000 $URX=4.640000 $URY=1.300000 $lvl=3
RgI225 Mmn55:g Qint:30 170.306671 $poly  $L=0.53 $W=0.150000 $SI_W=0.15 $TYPE=10 $DIR=1 $LLX=4.490000 $LLY=0.245000 $URX=4.640000 $URY=0.775000 $lvl=3
RgI226 Qint:31 Mmp57:g 282.773346 $poly  $L=0.88 $W=0.150000 $SI_W=0.15 $TYPE=10 $DIR=1 $LLX=6.100000 $LLY=3.015000 $URX=6.250000 $URY=3.895000 $lvl=3
RgI227 Mmp57:g Qint:32 484.044861 $poly  $L=1.58 $W=0.150000 $SI_W=0.15 $TYPE=10 $DIR=1 $LLX=6.100000 $LLY=1.435000 $URX=6.250000 $URY=3.015000 $lvl=3
RgI228 Qint:32 Qint:33 31.545456 $poly  $L=0.1345 $W=0.330000 $SI_W=0.33 $TYPE=10 $DIR=1 $LLX=6.100000 $LLY=1.300500 $URX=6.430000 $URY=1.435000 $lvl=3
RgI229 Qint:33 Mmn57:g 168.736511 $poly  $L=0.525 $W=0.150000 $SI_W=0.15 $TYPE=10 $DIR=1 $LLX=6.100000 $LLY=0.775000 $URX=6.250000 $URY=1.300000 $lvl=3
RgI230 Mmn57:g Qint:34 170.306671 $poly  $L=0.53 $W=0.150000 $SI_W=0.15 $TYPE=10 $DIR=1 $LLX=6.100000 $LLY=0.245000 $URX=6.250000 $URY=0.775000 $lvl=3
RhI231 Mmn30:d Qint:42 15.000000 $licon_diff  $L=0.17 $W=0.17 $A=0.0289 $VC=0 $SAVL=0 $SAVC=0 $SI_A=0.0289 $COVER_DIR=0 $LLX=0.000000 $LLY=0.000000 $URX=0.170000 $URY=0.170000 $lvl=5
Rh_2_I232 Mmp30:d Qint:37 7.500000 $licon_diff  $A=0.0578 $VC=0 $SAVL=0 $SAVC=0 $SI_A=0.0578 $COVER_DIR=0 $LLX=0.000000 $LLY=0.000000 $URX=-0.057800 $URY=-2.000000 $lvl=5
RjI233 Qint:38 Qint:51 152.000000 $mcon  $L=0.17 $W=0.17 $A=0.0289 $VC=0 $SAVL=0 $SAVC=0 $SI_A=0.0289 $COVER_DIR=0 $LLX=0.000000 $LLY=0.000000 $URX=0.170000 $URY=0.170000 $lvl=6
RjI234 Qint:47 Qint:52 152.000000 $mcon  $L=0.17 $W=0.17 $A=0.0289 $VC=0 $SAVL=0 $SAVC=0 $SI_A=0.0289 $COVER_DIR=0 $LLX=0.000000 $LLY=0.000000 $URX=0.170000 $URY=0.170000 $lvl=6
RjI235 Qint:40 Qint:53 152.000000 $mcon  $L=0.17 $W=0.17 $A=0.0289 $VC=0 $SAVL=0 $SAVC=0 $SI_A=0.0289 $COVER_DIR=0 $LLX=0.000000 $LLY=0.000000 $URX=0.170000 $URY=0.170000 $lvl=6
RiI236 Qint:32 Qint:45 15.000000 $licon  $L=0.17 $W=0.17 $A=0.0289 $VC=0 $SAVL=0 $SAVC=0 $SI_A=0.0289 $COVER_DIR=0 $LLX=0.000000 $LLY=0.000000 $URX=0.170000 $URY=0.170000 $lvl=7
RiI237 Qint:28 Qint:46 15.000000 $licon  $L=0.17 $W=0.17 $A=0.0289 $VC=0 $SAVL=0 $SAVC=0 $SI_A=0.0289 $COVER_DIR=0 $LLX=0.000000 $LLY=0.000000 $URX=0.170000 $URY=0.170000 $lvl=7
RiI238 Qint:23 Qint:48 15.000000 $licon  $L=0.17 $W=0.17 $A=0.0289 $VC=0 $SAVL=0 $SAVC=0 $SI_A=0.0289 $COVER_DIR=0 $LLX=0.000000 $LLY=0.000000 $URX=0.170000 $URY=0.170000 $lvl=7
RmwI239 Mmn35:g Qint 0.001000 $poly $W=1000000 $SI_W=1000000 $TYPE=1 $DIR=0
*
*|NET D 7.79629e-16
*|P (D X 0 0.8950 2.6100) // $llx=0.8950 $lly=2.6100 $urx=0.8950 $ury=2.6100 $lvl=1
*|I (Mmp25:g Mmp25 g X 0 0.9050 3.3550) // $llx=0.9050 $lly=3.3550 $urx=0.9050 $ury=3.3550 $lvl=3
*|I (Mmn25:g Mmn25 g X 0 0.9050 0.6075) // $llx=0.9050 $lly=0.6075 $urx=0.9050 $ury=0.6075 $lvl=3
*|S (D:8 0.9050 3.8950) // $llx=0.9050 $lly=3.8950 $urx=0.9050 $ury=3.8950 $lvl=3
*|S (D:9 0.9050 2.6500) // $llx=0.9050 $lly=2.6500 $urx=0.9050 $ury=2.6500 $lvl=3
*|S (D:10 0.9050 2.4850) // $llx=0.9050 $lly=2.4850 $urx=0.9050 $ury=2.4850 $lvl=3
*|S (D:11 0.9050 0.2450) // $llx=0.9050 $lly=0.2450 $urx=0.9050 $ury=0.2450 $lvl=3
*|S (D:12 1.1150 2.6500) // $llx=1.1150 $lly=2.6500 $urx=1.1150 $ury=2.6500 $lvl=2
*|S (D:13 0.9050 2.6500) // $llx=0.9050 $lly=2.6500 $urx=0.9050 $ury=2.6500 $lvl=2
*|S (D:14 0.8500 2.6500) // $llx=0.8500 $lly=2.6500 $urx=0.8500 $ury=2.6500 $lvl=2
*|S (D:15 0.4550 2.6500) // $llx=0.4550 $lly=2.6500 $urx=0.4550 $ury=2.6500 $lvl=2
*|S (D:16 0.9200 3.2545) // $llx=0.9200 $lly=3.2545 $urx=0.9200 $ury=3.2545 $lvl=1
*|S (D:17 0.8925 2.7945) // $llx=0.8925 $lly=2.7945 $urx=0.8925 $ury=2.7945 $lvl=1
*|S (D:18 0.8500 2.6500) // $llx=0.8500 $lly=2.6500 $urx=0.8500 $ury=2.6500 $lvl=1
*|S (D:19 0.8925 2.5050) // $llx=0.8925 $lly=2.5050 $urx=0.8925 $ury=2.5050 $lvl=1
*|S (D:20 0.9200 2.3400) // $llx=0.9200 $lly=2.3400 $urx=0.9200 $ury=2.3400 $lvl=1
CA1 Mmn25:g VSS! 2.4117e-18 $lvl=3
CA2 D:8 VSS! 1.97476e-18 $lvl=3
CA3 D:18 VSS! 6.61279e-18 $lvl=1
CA4 D:16 VSS! 3.64132e-18 $lvl=1
CA5 D:20 VSS! 6.16865e-18 $lvl=1
CA6 D:15 VSS! 3.85852e-18 $lvl=2
CA7 D:14 VSS! 3.5091e-18 $lvl=2
CA8 D:9 VSS! 5.20009e-18 $lvl=3
CA9 D:18 n22:4 2.20617e-18 $lvl1=1 $lvl2=2
CA10 D:9 n22:4 1.82981e-18 $lvl1=3 $lvl2=2
CA11 D:9 Mmp25:d 1.23129e-18 $lvl1=3 $lvl2=4
CA12 D:16 n22:4 1.14158e-18 $lvl1=1 $lvl2=2
CA13 D:16 n22 5.18481e-19 $lvl1=1 $lvl2=2
CA14 D:14 n22:4 7.99835e-18 $lvl1=2 $lvl2=2
CA15 D:16 n22:3 7.98669e-18 $lvl1=1 $lvl2=2
CA16 D:8 n22:3 1.27092e-16 $lvl1=3 $lvl2=2
CA17 D:14 n22:3 3.50191e-18 $lvl1=2 $lvl2=2
CA18 D:9 n22:3 3.48092e-18 $lvl1=3 $lvl2=2
CA19 D:18 n22:3 2.86322e-18 $lvl1=1 $lvl2=2
CA20 Mmn25:g n21:3 6.43856e-17 $lvl1=3 $lvl2=2
CA21 D:14 Gbb:20 3.08231e-18 $lvl1=2 $lvl2=2
CA22 D:18 Gbb:20 2.98574e-18 $lvl1=1 $lvl2=2
CA23 Mmn25:g Gbb:10 2.50533e-18 $lvl1=3 $lvl2=3
CA24 D:9 Gbb:13 2.17895e-18 $lvl1=3 $lvl2=3
CA25 D:14 Gbb:13 1.73192e-18 $lvl1=2 $lvl2=3
CA26 D:18 Gbb:29 1.33503e-18 $lvl1=1 $lvl2=1
CA27 D:20 Gbb:20 1.26621e-18 $lvl1=1 $lvl2=2
CA28 D:9 Gbb:20 1.08787e-18 $lvl1=3 $lvl2=2
CA29 D:20 Gbb:29 7.47529e-19 $lvl1=1 $lvl2=1
CA30 D:18 Gbb:32 6.54439e-19 $lvl1=1 $lvl2=1
CA31 D:18 Gbb:13 5.24414e-19 $lvl1=1 $lvl2=3
CA32 D:20 Gbb:32 4.98807e-19 $lvl1=1 $lvl2=1
CA33 D:16 Gbb:29 4.00635e-19 $lvl1=1 $lvl2=1
CA34 D:16 Gbb:20 3.41132e-19 $lvl1=1 $lvl2=2
CA35 D:9 Gbb:11 3.34669e-19 $lvl1=3 $lvl2=3
CA36 D:14 n0:12 2.96613e-18 $lvl1=2 $lvl2=2
CA37 D:18 n0:26 2.53921e-18 $lvl1=1 $lvl2=1
CA38 D:20 n0:24 1.65216e-18 $lvl1=1 $lvl2=1
CA39 D:18 n0:12 1.50737e-18 $lvl1=1 $lvl2=2
CA40 D:14 n0:24 1.35008e-18 $lvl1=2 $lvl2=1
CA41 D:9 n0:12 1.20795e-18 $lvl1=3 $lvl2=2
CA42 D:16 n0:12 1.07976e-18 $lvl1=1 $lvl2=2
CA43 D:18 n0:15 1.00675e-18 $lvl1=1 $lvl2=2
CA44 D:14 n0:15 8.50171e-19 $lvl1=2 $lvl2=2
CA45 D:8 n0:12 6.67583e-19 $lvl1=3 $lvl2=2
CA46 D:16 n0:15 6.58625e-19 $lvl1=1 $lvl2=2
CA47 D:18 n0:30 6.5103e-19 $lvl1=1 $lvl2=1
CA48 D:20 n0:30 5.89845e-19 $lvl1=1 $lvl2=1
CA49 D:18 n0:27 5.42743e-19 $lvl1=1 $lvl2=1
CA50 Mmn25:g n0:16 4.92931e-19 $lvl1=3 $lvl2=2
CA51 D:16 n0:24 1.10826e-17 $lvl1=1 $lvl2=1
CA52 D:16 n0:26 7.59337e-18 $lvl1=1 $lvl2=1
CA53 D:18 n0:24 1.43947e-17 $lvl1=1 $lvl2=1
CA54 D:20 Gb:35 3.57869e-18 $lvl1=1 $lvl2=2
CA55 D:15 Gb:33 3.40603e-18 $lvl1=2 $lvl2=2
CA56 D:14 Gb:35 3.13236e-18 $lvl1=2 $lvl2=2
CA57 D:20 Gb:37 2.58044e-18 $lvl1=1 $lvl2=1
CA58 D:9 Gb:15 2.44455e-18 $lvl1=3 $lvl2=3
CA59 D:18 Gb:35 2.41069e-18 $lvl1=1 $lvl2=2
CA60 D:14 Gb:33 2.32812e-18 $lvl1=2 $lvl2=2
CA61 D:20 Gb:33 2.2724e-18 $lvl1=1 $lvl2=2
CA62 D:9 Gb:33 2.03904e-18 $lvl1=3 $lvl2=2
CA63 D:9 Gb:35 1.93636e-18 $lvl1=3 $lvl2=2
CA64 D:15 Gb:27 1.86397e-18 $lvl1=2 $lvl2=2
CA65 D:16 Gb:24 1.50629e-18 $lvl1=1 $lvl2=2
CA66 D:9 Gb:24 1.50274e-18 $lvl1=3 $lvl2=2
CA67 D:18 Gb:24 1.17149e-18 $lvl1=1 $lvl2=2
CA68 D:18 Gb:33 1.1604e-18 $lvl1=1 $lvl2=2
CA69 D:14 Gb:37 1.13855e-18 $lvl1=2 $lvl2=1
CA70 D:14 Gb:39 9.77923e-19 $lvl1=2 $lvl2=1
CA71 D:15 Gb:35 8.7577e-19 $lvl1=2 $lvl2=2
CA72 D:9 Gb:17 8.75329e-19 $lvl1=3 $lvl2=3
CA73 D:18 Gb:27 8.33283e-19 $lvl1=1 $lvl2=2
CA74 D:14 Gb:17 8.32215e-19 $lvl1=2 $lvl2=3
CA75 D:15 Gb:34 7.88199e-19 $lvl1=2 $lvl2=2
CA76 D:16 Gb:27 7.87191e-19 $lvl1=1 $lvl2=2
CA77 D:16 Gb:39 6.95767e-19 $lvl1=1 $lvl2=1
CA78 D:14 Gb:15 6.66055e-19 $lvl1=2 $lvl2=3
CA79 D:8 Gb:24 6.05785e-19 $lvl1=3 $lvl2=2
CA80 D:9 Gb:39 6.0137e-19 $lvl1=3 $lvl2=1
CA81 D:20 Gb:34 5.13723e-19 $lvl1=1 $lvl2=2
CA82 D:20 Gb:41 5.03844e-19 $lvl1=1 $lvl2=1
CA83 D:18 Gb:41 5.00605e-19 $lvl1=1 $lvl2=1
CA84 D:9 Gb:37 4.83839e-19 $lvl1=3 $lvl2=1
CA85 D:18 Gb:42 4.61507e-19 $lvl1=1 $lvl2=1
CA86 D:14 Gb:24 4.59577e-19 $lvl1=2 $lvl2=2
CA87 Mmn25:g Gb:33 4.32149e-19 $lvl1=3 $lvl2=2
CA88 D:15 Mmp20:d 4.25409e-19 $lvl1=2 $lvl2=4
CA89 D:9 Mmp20:d 3.55136e-19 $lvl1=3 $lvl2=4
CA90 D:18 Gb:17 3.45434e-19 $lvl1=1 $lvl2=3
CA91 Mmn25:g Gb:28 3.38789e-19 $lvl1=3 $lvl2=2
CA92 D:20 Gb:17 3.21157e-19 $lvl1=1 $lvl2=3
CA93 D:9 Gb:34 2.68748e-19 $lvl1=3 $lvl2=2
CA94 D:14 Gb:34 2.55548e-19 $lvl1=2 $lvl2=2
CA95 D:18 Gb:36 2.47903e-19 $lvl1=1 $lvl2=2
CA96 D:14 Gb:27 2.44244e-19 $lvl1=2 $lvl2=2
CA97 D:20 Gb:39 7.73503e-18 $lvl1=1 $lvl2=1
CA98 D:18 Gb:39 7.77597e-18 $lvl1=1 $lvl2=1
CA99 D:15 Gb:39 3.93455e-18 $lvl1=2 $lvl2=1
CA100 D:16 Gb:37 1.14359e-17 $lvl1=1 $lvl2=1
CA101 D:18 Gb:37 2.38712e-17 $lvl1=1 $lvl2=1
CA102 D:15 Gb:24 8.53073e-18 $lvl1=2 $lvl2=2
CA103 D:15 Gb:37 6.96211e-18 $lvl1=2 $lvl2=1
CA104 Mmn25:g VSS!:23 6.77718e-17 $lvl1=3 $lvl2=2
CA105 Mmn25:g VSS!:14 8.44345e-18 $lvl1=3 $lvl2=2
CA106 D:18 VDD!:26 3.59211e-18 $lvl1=1 $lvl2=1
CA107 D:20 VDD! 3.20368e-18 $lvl1=1 $lvl2=1
CA108 D:14 VDD! 2.19157e-18 $lvl1=2 $lvl2=1
CA109 D:16 VDD!:27 1.41125e-18 $lvl1=1 $lvl2=1
CA110 D:9 Mmp25:s 1.05001e-18 $lvl1=3 $lvl2=4
CA111 D:16 VDD!:4 8.76632e-19 $lvl1=1 $lvl2=2
CA112 D:18 VDD!:27 8.47447e-19 $lvl1=1 $lvl2=1
CA113 D:18 VDD!:1 5.36625e-18 $lvl1=1 $lvl2=2
CA114 D:14 VDD!:1 9.34422e-18 $lvl1=2 $lvl2=2
CA115 D:8 VDD!:1 1.2882e-16 $lvl1=3 $lvl2=2
CA116 D:15 VDD! 5.77711e-18 $lvl1=2 $lvl2=1
CA117 D:15 VDD!:1 1.41352e-17 $lvl1=2 $lvl2=2
CA118 D:16 VDD!:26 1.01031e-17 $lvl1=1 $lvl2=1
CA119 D:16 VDD!:1 9.59378e-18 $lvl1=1 $lvl2=2
CA120 D:9 VDD!:1 5.06833e-18 $lvl1=3 $lvl2=2
CA121 D:8 VDD!:4 9.1024e-18 $lvl1=3 $lvl2=2
CA122 D:18 VDD! 7.07093e-18 $lvl1=1 $lvl2=1
CA123 D:9 VDD! 1.41398e-17 $lvl1=3 $lvl2=1
CA124 D:16 VDD! 4.24706e-18 $lvl1=1 $lvl2=1
CA125 D:18 G:21 3.3319e-18 $lvl1=1 $lvl2=1
CA126 D:9 G:11 2.62625e-18 $lvl1=3 $lvl2=3
CA127 Mmn25:g G:14 1.89803e-18 $lvl1=3 $lvl2=2
CA128 Mmn25:g G:9 1.86277e-18 $lvl1=3 $lvl2=3
CA129 D:15 G:11 1.42143e-18 $lvl1=2 $lvl2=3
CA130 D:14 G:21 9.71023e-19 $lvl1=2 $lvl2=1
CA131 D:15 G:21 4.47654e-19 $lvl1=2 $lvl2=1
CA132 D:16 G:21 3.5037e-19 $lvl1=1 $lvl2=1
CA133 D:20 G:21 7.02851e-18 $lvl1=1 $lvl2=1
ReA1 D:16 D:17 0.221013 $metal1  $L=0.4595 $W=0.260000 $SI_W=0.26 $TYPE=10 $DIR=1 $LLX=0.790000 $LLY=2.795000 $URX=1.050000 $URY=3.254500 $lvl=1
ReA2 D:17 D:18 0.061289 $metal1  $L=0.1445 $W=0.315000 $SI_W=0.315 $TYPE=10 $DIR=1 $LLX=0.735000 $LLY=2.650000 $URX=1.050000 $URY=2.794500 $lvl=1
ReA3 D:18 D 0.015873 $metal1  $L=0.04 $W=0.315000 $SI_W=0.315 $TYPE=10 $DIR=1 $LLX=0.735000 $LLY=2.610000 $URX=1.050000 $URY=2.650000 $lvl=1
ReA4 D D:19 0.041567 $metal1  $L=0.1045 $W=0.315000 $SI_W=0.315 $TYPE=10 $DIR=1 $LLX=0.735000 $LLY=2.505000 $URX=1.050000 $URY=2.610000 $lvl=1
ReA5 D:19 D:20 0.079426 $metal1  $L=0.165 $W=0.260000 $SI_W=0.26 $TYPE=10 $DIR=1 $LLX=0.790000 $LLY=2.340000 $URX=1.050000 $URY=2.505000 $lvl=1
RfA6 D:12 D:13 15.811765 $li  $L=0.21 $W=0.170000 $SI_W=0.17 $TYPE=10 $DIR=0 $LLX=0.905000 $LLY=2.565000 $URX=1.115000 $URY=2.735000 $lvl=2
RfA7 D:13 D:14 4.141177 $li  $L=0.055 $W=1000000 $SI_W=1000000 $TYPE=1,10 $DIR=0 $LLX=0.850000 $LLY=2.565000 $URX=0.905000 $URY=2.735000 $lvl=2
RfA8 D:14 D:15 29.741175 $li  $L=0.395 $W=0.170000 $SI_W=0.17 $TYPE=10 $DIR=0 $LLX=0.455000 $LLY=2.565000 $URX=0.850000 $URY=2.735000 $lvl=2
RgA9 D:8 Mmp25:g 173.519989 $poly  $L=0.54 $W=0.150000 $SI_W=0.15 $TYPE=10 $DIR=1 $LLX=0.830000 $LLY=3.355000 $URX=0.980000 $URY=3.895000 $lvl=3
RgA10 Mmp25:g D:9 207.699081 $poly  $L=0.705 $W=0.150000 $SI_W=0.15 $TYPE=10 $DIR=1 $LLX=0.830000 $LLY=2.650000 $URX=0.980000 $URY=3.355000 $lvl=3
RgA11 D:9 D:10 34.134449 $poly  $L=0.1645 $W=0.270000 $SI_W=0.27 $TYPE=10 $DIR=1 $LLX=0.770000 $LLY=2.485000 $URX=1.040000 $URY=2.650000 $lvl=3
RgA12 D:10 Mmn25:g 603.347961 $poly  $L=1.8775 $W=0.150000 $SI_W=0.15 $TYPE=10 $DIR=1 $LLX=0.830000 $LLY=0.607500 $URX=0.980000 $URY=2.485000 $lvl=3
RgA13 Mmn25:g D:11 116.483322 $poly  $L=0.3625 $W=0.150000 $SI_W=0.15 $TYPE=10 $DIR=1 $LLX=0.830000 $LLY=0.245000 $URX=0.980000 $URY=0.607500 $lvl=3
RjA14 D:14 D:18 152.000000 $mcon  $L=0.17 $W=0.17 $A=0.0289 $VC=0 $SAVL=0 $SAVC=0 $SI_A=0.0289 $COVER_DIR=0 $LLX=0.000000 $LLY=0.000000 $URX=0.170000 $URY=0.170000 $lvl=6
RiA15 D:9 D:13 15.000000 $licon  $L=0.17 $W=0.17 $A=0.0289 $VC=0 $SAVL=0 $SAVC=0 $SI_A=0.0289 $COVER_DIR=0 $LLX=0.000000 $LLY=0.000000 $URX=0.170000 $URY=0.170000 $lvl=7
*
*|NET Gbb 1.80143e-15
*|I (Mmp21:d Mmp21 d X 0 2.7005 3.3550) // $llx=2.7005 $lly=3.3550 $urx=2.7005 $ury=3.3550 $lvl=4
*|I (Mmp36:g Mmp36 g X 0 1.7650 3.3550) // $llx=1.7650 $lly=3.3550 $urx=1.7650 $ury=3.3550 $lvl=3
*|I (Mmn26:g Mmn26 g X 0 1.3350 0.6075) // $llx=1.3350 $lly=0.6075 $urx=1.3350 $ury=0.6075 $lvl=3
*|I (Mmn21:d Mmn21 d X 0 2.7005 0.6075) // $llx=2.7005 $lly=0.6075 $urx=2.7005 $ury=0.6075 $lvl=4
*|S (Gbb 1.3350 0.6075) // $llx=1.3350 $lly=0.6075 $urx=1.3350 $ury=0.6075 $lvl=3
*|S (Gbb:8 1.3350 0.2450) // $llx=1.3350 $lly=0.2450 $urx=1.3350 $ury=0.2450 $lvl=3
*|S (Gbb:9 1.3450 0.9300) // $llx=1.3450 $lly=0.9300 $urx=1.3450 $ury=0.9300 $lvl=3
*|S (Gbb:10 1.3450 1.0950) // $llx=1.3450 $lly=1.0950 $urx=1.3450 $ury=1.0950 $lvl=3
*|S (Gbb:11 1.7650 3.8950) // $llx=1.7650 $lly=3.8950 $urx=1.7650 $ury=3.8950 $lvl=3
*|S (Gbb:12 1.7550 2.6445) // $llx=1.7550 $lly=2.6445 $urx=1.7550 $ury=2.6445 $lvl=3
*|S (Gbb:13 1.7550 2.4800) // $llx=1.7550 $lly=2.4800 $urx=1.7550 $ury=2.4800 $lvl=3
*|S (Gbb:14 2.8400 3.7450) // $llx=2.8400 $lly=3.7450 $urx=2.8400 $ury=3.7450 $lvl=2