*
*|DSPF 1.5
*
*|DATE "Wed Jan  8 18:41:05 2025"
*|VENDOR "Cadence Design Systems"
*|PROGRAM "Cadence Quantus Extraction"
*|VERSION "22.1.0-p089 Linux 64 bit - (Thu Jan 19 11:47:08 PST 2023)"
*|DESIGN TLATSRX1_HS
*|DIVIDER /
*|DELIMITER :
*|DeviceFingerDelim "@"
*|BUSBIT []
*|GLOBAL_TEMPERATURE 25
*|OPERATING_TEMPERATURE 25

** *VIA_COVERAGE_CODES
** *index FF FS FP FU SF SS SP SU PF PS PP PU UF US UP UU X_by_Y
** * "FF" stands for Full landing and Full coverage
** *0 0 0 0 0 0 0 0 0 0 0 0 0 0 0 0 0
** *1 0 0 0 0 0 0 0 0 0 0 0 0 0 0 0 1 1x1
** *2 0 0 0 0 0 0 0 0 0 0 0 0 0 0 1 0 1x1
** *3 0 0 0 0 0 0 0 0 0 0 0 0 0 1 0 0 1x1
** *4 0 0 0 0 0 0 0 0 0 0 0 0 1 0 0 0 1x1
** *5 0 0 0 0 0 0 0 0 0 0 0 1 0 0 0 0 1x1
** *6 0 0 0 0 0 0 0 0 0 0 1 0 0 0 0 0 1x1
** *7 0 0 0 0 0 0 0 0 0 1 0 0 0 0 0 0 1x1
** *8 0 0 0 0 0 0 0 0 1 0 0 0 0 0 0 0 1x1
** *9 0 0 0 0 0 0 0 1 0 0 0 0 0 0 0 0 1x1
** *10 0 0 0 0 0 0 1 0 0 0 0 0 0 0 0 0 1x1
** *11 0 0 0 0 0 1 0 0 0 0 0 0 0 0 0 0 1x1
** *12 0 0 0 0 1 0 0 0 0 0 0 0 0 0 0 0 1x1
** *13 0 0 0 1 0 0 0 0 0 0 0 0 0 0 0 0 1x1
** *14 0 0 1 0 0 0 0 0 0 0 0 0 0 0 0 0 1x1
** *15 0 1 0 0 0 0 0 0 0 0 0 0 0 0 0 0 1x1
** *16 1 0 0 0 0 0 0 0 0 0 0 0 0 0 0 0 1x1

** *RESISTOR_TYPES
** *1 SHORTING_ELEMENT
** *2 PRES_NG
** *3 PRES_PG
** *4 PRES_NF
** *5 PRES_PF
** *6 TCN_NDIFF
** *7 TCN_PDIFF
** *8 TCN_NFIELD
** *9 TCN_PFIELD
** *10 QUALITY_EXTRACTED
** *11 GCNLAND
** *12 TCNLAND
** *13 DUMMY
** *14 RSD
** *15 BRIDGE

** *RESISTOR_CURRENT_DIRECTION
** *0 HORIZONTAL
** *1 VERTICAL
** *2 45 DEGREE

** QRC_TECH_DIR /vols/wfo_devel/projects/reference_SKY130/tech/sky130_release_0.0.4/quantus/extraction/typical 
** HIERARCHICAL_SPLIT_PINS_DELIMITER '%'
** caps2d version: 10
*
.SUBCKT  TLATSRX1_HS D G Q QN RN SN
*
*Net Section
*
*|GROUND_NET VSS!
*
*LAYER_MAP
*0 none
*1 metal1
*2 li
*3 poly
*4 diff
*5 licon_diff
*6 mcon
*7 licon
*8 FOX

*|NET G 7.35947e-16
*|P (G X 0 0.4620 2.4140) // $llx=0.4620 $lly=2.4140 $urx=0.4620 $ury=2.4140 $lvl=1
*|I (Mmp20:g Mmp20 g X 0 0.4750 3.3550) // $llx=0.4750 $lly=3.3550 $urx=0.4750 $ury=3.3550 $lvl=3
*|I (Mmn20:g Mmn20 g X 0 0.4750 0.6075) // $llx=0.4750 $lly=0.6075 $urx=0.4750 $ury=0.6075 $lvl=3
*|S (G:8 0.4750 3.8950) // $llx=0.4750 $lly=3.8950 $urx=0.4750 $ury=3.8950 $lvl=3
*|S (G:9 0.4750 2.4550) // $llx=0.4750 $lly=2.4550 $urx=0.4750 $ury=2.4550 $lvl=3
*|S (G:10 0.3125 2.4550) // $llx=0.3125 $lly=2.4550 $urx=0.3125 $ury=2.4550 $lvl=3
*|S (G:11 0.4750 0.2450) // $llx=0.4750 $lly=0.2450 $urx=0.4750 $ury=0.2450 $lvl=3
*|S (G:12 0.2250 2.4550) // $llx=0.2250 $lly=2.4550 $urx=0.2250 $ury=2.4550 $lvl=3
*|S (G:13 0.3125 2.4550) // $llx=0.3125 $lly=2.4550 $urx=0.3125 $ury=2.4550 $lvl=2
*|S (G:14 0.2650 2.4550) // $llx=0.2650 $lly=2.4550 $urx=0.2650 $ury=2.4550 $lvl=2
*|S (G:15 0.2650 2.4550) // $llx=0.2650 $lly=2.4550 $urx=0.2650 $ury=2.4550 $lvl=1
*|S (G:16 0.3550 2.5695) // $llx=0.3550 $lly=2.5695 $urx=0.3550 $ury=2.5695 $lvl=1
*|S (G:17 0.4600 3.2545) // $llx=0.4600 $lly=3.2545 $urx=0.4600 $ury=3.2545 $lvl=1
CB1 G:8 VSS! 1.85129e-18 $lvl=3
CB2 G:11 VSS! 1.66502e-18 $lvl=3
CB3 G:15 VSS! 1.37529e-17 $lvl=1
CB4 G:17 VSS! 8.21088e-18 $lvl=1
CB5 G:14 VSS! 5.67807e-18 $lvl=2
CB6 G:10 VSS! 6.30433e-18 $lvl=3
CB7 G:11 net1:4 4.2704e-19 $lvl1=3 $lvl2=2
CB8 G:11 net1:3 6.48836e-17 $lvl1=3 $lvl2=2
CB9 G:10 Gb:29 2.48552e-18 $lvl1=3 $lvl2=2
CB10 G:15 Gb:31 1.49832e-18 $lvl1=1 $lvl2=2
CB11 G:15 Gb:32 1.40075e-18 $lvl1=1 $lvl2=2
CB12 G:11 Gb:29 8.40234e-19 $lvl1=3 $lvl2=2
CB13 G:11 Gb:34 8.3494e-19 $lvl1=3 $lvl2=2
CB14 G:14 Gb:31 6.62121e-19 $lvl1=2 $lvl2=2
CB15 G:17 Gb:29 5.71911e-19 $lvl1=1 $lvl2=2
CB16 G:14 Gb:28 1.51216e-17 $lvl1=2 $lvl2=2
CB17 G:15 Gb:28 1.24034e-17 $lvl1=1 $lvl2=2
CB18 G:8 Gb:25 1.27357e-16 $lvl1=3 $lvl2=2
CB19 G:15 Gb:25 1.18518e-17 $lvl1=1 $lvl2=2
CB20 G:10 Gb:25 5.97928e-18 $lvl1=3 $lvl2=2
CB21 G:14 Gb:25 1.12675e-17 $lvl1=2 $lvl2=2
CB22 G:11 Gb:31 6.90027e-17 $lvl1=3 $lvl2=2
CB23 G:14 Gb:29 7.63011e-18 $lvl1=2 $lvl2=2
CB24 G:15 Gb:29 6.31233e-18 $lvl1=1 $lvl2=2
CB25 G:17 Gb:25 1.46837e-17 $lvl1=1 $lvl2=2
CB26 G:10 Gb:28 7.52761e-18 $lvl1=3 $lvl2=2
CB27 G:11 VSS!:11 1.76377e-18 $lvl1=3 $lvl2=2
CB28 G:11 VSS!:12 5.53373e-18 $lvl1=3 $lvl2=2
CB29 G:17 VDD!:9 3.51735e-18 $lvl1=1 $lvl2=2
CB30 G:15 VDD!:38 2.54941e-18 $lvl1=1 $lvl2=1
CB31 G:8 VDD!:6 1.36992e-18 $lvl1=3 $lvl2=2
CB32 G:15 VDD!:9 1.2955e-18 $lvl1=1 $lvl2=2
CB33 G:10 Mmp20:s 1.0172e-18 $lvl1=3 $lvl2=4
CB34 G:17 VDD!:4 9.00607e-19 $lvl1=1 $lvl2=2
CB35 G:17 VDD!:14 6.29176e-19 $lvl1=1 $lvl2=2
CB36 G:14 VDD!:38 5.45215e-19 $lvl1=2 $lvl2=1
CB37 G:15 VDD!:4 5.15563e-19 $lvl1=1 $lvl2=2
CB38 G:8 VDD!:9 4.72586e-19 $lvl1=3 $lvl2=2
CB39 G:14 Mmp20:s 3.92499e-19 $lvl1=2 $lvl2=4
CB40 G:14 VDD!:37 3.91126e-19 $lvl1=2 $lvl2=1
CB41 G:15 VDD!:5 3.87503e-19 $lvl1=1 $lvl2=2
CB42 G:8 VDD!:4 7.34776e-18 $lvl1=3 $lvl2=2
CB43 G:8 VDD!:1 1.31768e-16 $lvl1=3 $lvl2=2
CB44 G:17 VDD!:37 1.21863e-17 $lvl1=1 $lvl2=1
CB45 G:17 VDD!:1 1.60032e-17 $lvl1=1 $lvl2=2
CB46 G:15 VDD!:37 5.00509e-18 $lvl1=1 $lvl2=1
CB47 G:15 VDD! 2.69235e-17 $lvl1=1 $lvl2=1
CB48 G:17 VDD!:38 5.77757e-18 $lvl1=1 $lvl2=1
CB49 G:17 VDD! 1.31489e-17 $lvl1=1 $lvl2=1
CB50 G:10 VDD! 1.72175e-17 $lvl1=3 $lvl2=1
CB51 G:15 VDD!:1 8.42671e-18 $lvl1=1 $lvl2=2
CB52 G:14 VDD! 1.31277e-17 $lvl1=2 $lvl2=1
CB53 G:10 VDD!:1 4.43901e-18 $lvl1=3 $lvl2=2
CB54 G:14 VDD!:1 1.11088e-17 $lvl1=2 $lvl2=2
CB55 G:11 RN:16 2.59876e-18 $lvl1=3 $lvl2=3
CB56 G:10 RN:15 6.84201e-19 $lvl1=3 $lvl2=3
CB57 G:11 RN:29 6.46777e-19 $lvl1=3 $lvl2=2
CB58 G:17 RN:34 5.63013e-19 $lvl1=1 $lvl2=1
CB59 G:14 RN:34 4.62638e-19 $lvl1=2 $lvl2=1
CB60 G:15 RN:34 3.83264e-18 $lvl1=1 $lvl2=1
ReB16 G G:15 0.010904 $metal1  $L=0.041 $W=0.470000 $SI_W=0.47 $TYPE=10 $DIR=1 $LLX=0.120000 $LLY=2.414000 $URX=0.590000 $URY=2.455000 $lvl=1
ReB17 G:15 G:16 0.042637 $metal1  $L=0.1145 $W=0.470000 $SI_W=0.47 $TYPE=10 $DIR=1 $LLX=0.120000 $LLY=2.455000 $URX=0.590000 $URY=2.569500 $lvl=1
ReB18 G:16 G:17 0.329153 $metal1  $L=0.6845 $W=0.260000 $SI_W=0.26 $TYPE=10 $DIR=1 $LLX=0.330000 $LLY=2.570000 $URX=0.590000 $URY=3.254500 $lvl=1
RfB19 G:13 G:14 1.842424 $li  $L=0.0475 $W=0.330000 $SI_W=0.33 $TYPE=10 $DIR=0 $LLX=0.265000 $LLY=2.290000 $URX=0.312500 $URY=2.620000 $lvl=2
RgB20 G:8 Mmp20:g 173.519989 $poly  $L=0.54 $W=0.150000 $SI_W=0.15 $TYPE=10 $DIR=1 $LLX=0.400000 $LLY=3.355000 $URX=0.550000 $URY=3.895000 $lvl=3
RgB21 Mmp20:g G:9 289.119659 $poly  $L=0.89975 $W=0.150000 $SI_W=0.15 $TYPE=10 $DIR=1 $LLX=0.400000 $LLY=2.455000 $URX=0.550000 $URY=3.355000 $lvl=3
RgB22 G:9 G:10 23.771364 $poly  $L=0.16275 $W=0.330000 $SI_W=0.33 $TYPE=10 $DIR=0 $LLX=0.312000 $LLY=2.290000 $URX=0.475000 $URY=2.620000 $lvl=3
RgB23 G:9 Mmn20:g 593.743652 $poly  $L=1.84775 $W=0.150000 $SI_W=0.15 $TYPE=10 $DIR=1 $LLX=0.400000 $LLY=0.607000 $URX=0.550000 $URY=2.455000 $lvl=3
RgB24 Mmn20:g G:11 116.483322 $poly  $L=0.3625 $W=0.150000 $SI_W=0.15 $TYPE=10 $DIR=1 $LLX=0.400000 $LLY=0.245000 $URX=0.550000 $URY=0.607500 $lvl=3
RgB25 G:10 G:12 12.780304 $poly  $L=0.0875 $W=0.330000 $SI_W=0.33 $TYPE=10 $DIR=0 $LLX=0.225000 $LLY=2.290000 $URX=0.312500 $URY=2.620000 $lvl=3
RjB26 G:14 G:15 152.000000 $mcon  $L=0.17 $W=0.17 $A=0.0289 $VC=0 $SAVL=0 $SAVC=0 $SI_A=0.0289 $COVER_DIR=0 $LLX=0.000000 $LLY=0.000000 $URX=0.170000 $URY=0.170000 $lvl=6
RiB27 G:10 G:13 15.000000 $licon  $L=0.075 $W=0.17 $A=0.01275 $VC=0 $SAVL=0 $SAVC=0 $SI_A=0.01275 $COVER_DIR=0 $LLX=0.000000 $LLY=0.000000 $URX=0.170000 $URY=0.075000 $lvl=7
*
*|NET D 7.72586e-16
*|P (D X 0 1.4150 2.6100) // $llx=1.4150 $lly=2.6100 $urx=1.4150 $ury=2.6100 $lvl=1
*|I (Mmp25:g Mmp25 g X 0 1.3350 3.3550) // $llx=1.3350 $lly=3.3550 $urx=1.3350 $ury=3.3550 $lvl=3
*|I (Mmn25:g Mmn25 g X 0 1.3350 0.6075) // $llx=1.3350 $lly=0.6075 $urx=1.3350 $ury=0.6075 $lvl=3
*|S (D:8 1.3350 3.8950) // $llx=1.3350 $lly=3.8950 $urx=1.3350 $ury=3.8950 $lvl=3
*|S (D:9 1.3350 2.6500) // $llx=1.3350 $lly=2.6500 $urx=1.3350 $ury=2.6500 $lvl=3
*|S (D:10 1.3350 2.4850) // $llx=1.3350 $lly=2.4850 $urx=1.3350 $ury=2.4850 $lvl=3
*|S (D:11 1.3350 0.2450) // $llx=1.3350 $lly=0.2450 $urx=1.3350 $ury=0.2450 $lvl=3
*|S (D:12 1.6800 2.6500) // $llx=1.6800 $lly=2.6500 $urx=1.6800 $ury=2.6500 $lvl=2
*|S (D:13 1.3350 2.6500) // $llx=1.3350 $lly=2.6500 $urx=1.3350 $ury=2.6500 $lvl=2
*|S (D:14 1.2800 2.6500) // $llx=1.2800 $lly=2.6500 $urx=1.2800 $ury=2.6500 $lvl=2
*|S (D:15 1.0200 2.6500) // $llx=1.0200 $lly=2.6500 $urx=1.0200 $ury=2.6500 $lvl=2
*|S (D:16 1.3375 2.7950) // $llx=1.3375 $lly=2.7950 $urx=1.3375 $ury=2.7950 $lvl=1
*|S (D:17 1.2800 2.6500) // $llx=1.2800 $lly=2.6500 $urx=1.2800 $ury=2.6500 $lvl=1
*|S (D:18 1.3375 2.5050) // $llx=1.3375 $lly=2.5050 $urx=1.3375 $ury=2.5050 $lvl=1
*|S (D:19 1.3800 2.3400) // $llx=1.3800 $lly=2.3400 $urx=1.3800 $ury=2.3400 $lvl=1
*|S (D:20 1.3800 3.2545) // $llx=1.3800 $lly=3.2545 $urx=1.3800 $ury=3.2545 $lvl=1
CA1 Mmn25:g VSS! 2.15428e-18 $lvl=3
CA2 D:8 VSS! 1.0258e-18 $lvl=3
CA3 D:18 VSS! 4.72209e-18 $lvl=1
CA4 D:16 VSS! 3.54274e-18 $lvl=1
CA5 D:20 VSS! 4.17919e-18 $lvl=1
CA6 D:19 VSS! 6.0914e-18 $lvl=1
CA7 D:12 VSS! 4.97076e-18 $lvl=2
CA8 D:15 VSS! 3.57289e-18 $lvl=2
CA9 D:14 VSS! 2.41203e-18 $lvl=2
CA10 D:9 VSS! 4.99136e-18 $lvl=3
CA11 D VSS! 5.493e-18 $lvl=1
CA12 D:16 n22:3 2.31869e-18 $lvl1=1 $lvl2=2
CA13 D:16 n22:4 1.78968e-18 $lvl1=1 $lvl2=2
CA14 D:20 n22:4 1.27898e-18 $lvl1=1 $lvl2=2
CA15 D:9 Mmp25:d 1.1428e-18 $lvl1=3 $lvl2=4
CA16 D:14 n22:4 1.00536e-18 $lvl1=2 $lvl2=2
CA17 D:14 n22:3 9.14849e-19 $lvl1=2 $lvl2=2
CA18 D:8 n22 4.95305e-19 $lvl1=3 $lvl2=2
CA19 D n22:4 4.74064e-19 $lvl1=1 $lvl2=2
CA20 D:8 n22:4 4.70071e-19 $lvl1=3 $lvl2=2
CA21 Mmn25:g n21:3 6.4347e-17 $lvl1=3 $lvl2=2
CA22 D:12 n22:3 3.79906e-18 $lvl1=2 $lvl2=2
CA23 D:20 n22:3 8.18838e-18 $lvl1=1 $lvl2=2
CA24 D:9 n22:4 2.36641e-18 $lvl1=3 $lvl2=2
CA25 D:9 n22:3 4.29584e-18 $lvl1=3 $lvl2=2
CA26 D:8 n22:3 1.27749e-16 $lvl1=3 $lvl2=2
CA27 D:12 n22:4 9.07554e-18 $lvl1=2 $lvl2=2
CA28 D:9 Gb:28 3.83551e-18 $lvl1=3 $lvl2=2
CA29 D:12 Gb:32 3.67905e-18 $lvl1=2 $lvl2=2
CA30 D:9 Gb:32 2.83216e-18 $lvl1=3 $lvl2=2
CA31 D:9 Gb:25 2.80557e-18 $lvl1=3 $lvl2=2
CA32 D:9 Gb:15 2.65449e-18 $lvl1=3 $lvl2=3
CA33 D:20 Gb:25 2.63514e-18 $lvl1=1 $lvl2=2
CA34 D:12 Gb:28 2.00274e-18 $lvl1=2 $lvl2=2
CA35 D:18 Gb:32 1.95819e-18 $lvl1=1 $lvl2=2
CA36 D:18 Gb:28 1.75462e-18 $lvl1=1 $lvl2=2
CA37 D:16 Gb:25 1.71191e-18 $lvl1=1 $lvl2=2
CA38 D:14 Gb:25 1.6166e-18 $lvl1=2 $lvl2=2
CA39 D:14 Gb:28 1.40977e-18 $lvl1=2 $lvl2=2
CA40 D:12 Gb:15 1.08784e-18 $lvl1=2 $lvl2=3
CA41 D Gb:25 1.04604e-18 $lvl1=1 $lvl2=2
CA42 D Gb:32 1.02201e-18 $lvl1=1 $lvl2=2
CA43 D Gb:28 9.91249e-19 $lvl1=1 $lvl2=2
CA44 D:14 Gb:32 9.54696e-19 $lvl1=2 $lvl2=2
CA45 D:9 Gb:16 9.06805e-19 $lvl1=3 $lvl2=3
CA46 D:15 Gb:32 8.69869e-19 $lvl1=2 $lvl2=2
CA47 D:12 Gb:25 7.2957e-19 $lvl1=2 $lvl2=2
CA48 D:8 Gb:25 5.77242e-19 $lvl1=3 $lvl2=2
CA49 D:18 Gb:25 5.70065e-19 $lvl1=1 $lvl2=2
CA50 D:12 Gb:16 5.61848e-19 $lvl1=2 $lvl2=3
CA51 D:19 Gb:25 4.72301e-19 $lvl1=1 $lvl2=2
CA52 D:16 Gb:32 4.52649e-19 $lvl1=1 $lvl2=2
CA53 D:16 Gb:28 4.25214e-19 $lvl1=1 $lvl2=2
CA54 Mmn25:g Gb:16 3.76538e-19 $lvl1=3 $lvl2=3
CA55 D:18 Gb:29 3.60947e-19 $lvl1=1 $lvl2=2
CA56 D:19 Gb:29 3.51481e-19 $lvl1=1 $lvl2=2
CA57 D:9 MPM0:d 3.34346e-19 $lvl1=3 $lvl2=4
CA58 D:20 Gb:32 3.04495e-19 $lvl1=1 $lvl2=2
CA59 Mmn25:g Gb:32 3.03605e-19 $lvl1=3 $lvl2=2
CA60 D:15 Gb:28 5.33658e-18 $lvl1=2 $lvl2=2
CA61 D:19 Gb:32 5.78769e-18 $lvl1=1 $lvl2=2
CA62 D:15 Gb:25 1.19388e-17 $lvl1=2 $lvl2=2
CA63 D:19 Gb:28 4.0692e-18 $lvl1=1 $lvl2=2
CA64 Mmn25:g Gbb:10 2.46174e-18 $lvl1=3 $lvl2=3
CA65 D:12 Gbb:13 2.02429e-18 $lvl1=2 $lvl2=3
CA66 D:9 Gbb:13 1.45749e-18 $lvl1=3 $lvl2=3
CA67 D:19 Gbb:20 1.37378e-18 $lvl1=1 $lvl2=2
CA68 D:9 Gbb:20 1.3498e-18 $lvl1=3 $lvl2=2
CA69 D:12 Gbb:18 1.18299e-18 $lvl1=2 $lvl2=2
CA70 D:19 Gbb:18 8.81853e-19 $lvl1=1 $lvl2=2
CA71 D:18 Gbb:20 8.6117e-19 $lvl1=1 $lvl2=2
CA72 D Gbb:20 6.65581e-19 $lvl1=1 $lvl2=2
CA73 D:18 Gbb:18 4.41785e-19 $lvl1=1 $lvl2=2
CA74 D:12 Gbb:11 4.36167e-19 $lvl1=2 $lvl2=3
CA75 D:16 Gbb:18 4.31131e-19 $lvl1=1 $lvl2=2
CA76 D Gbb:18 3.76557e-19 $lvl1=1 $lvl2=2
CA77 D:14 Gbb:20 3.47335e-19 $lvl1=2 $lvl2=2
CA78 D:16 Gbb:20 3.43638e-19 $lvl1=1 $lvl2=2
CA79 D:19 Gbb:13 3.05232e-19 $lvl1=1 $lvl2=3
CA80 D:9 Gbb:11 2.52565e-19 $lvl1=3 $lvl2=3
CA81 Mmn25:g Gbb:27 2.49559e-19 $lvl1=3 $lvl2=2
CA82 D:20 Gbb:18 2.25212e-19 $lvl1=1 $lvl2=2
CA83 D:12 Gbb:20 5.3696e-18 $lvl1=2 $lvl2=2
CA84 D n0:26 3.12638e-18 $lvl1=1 $lvl2=1
CA85 D:20 n0:16 3.08138e-18 $lvl1=1 $lvl2=2
CA86 D:19 n0:26 1.6629e-18 $lvl1=1 $lvl2=1
CA87 D:16 n0:16 1.60034e-18 $lvl1=1 $lvl2=2
CA88 D:16 n0:25 1.3293e-18 $lvl1=1 $lvl2=1
CA89 D:12 n0:26 1.17017e-18 $lvl1=2 $lvl2=1
CA90 D n0:25 1.1366e-18 $lvl1=1 $lvl2=1
CA91 D:16 n0:28 1.06291e-18 $lvl1=1 $lvl2=1
CA92 D:9 n0:16 1.01787e-18 $lvl1=3 $lvl2=2
CA93 D:20 n0:25 8.65095e-19 $lvl1=1 $lvl2=1
CA94 D:18 n0:26 8.63132e-19 $lvl1=1 $lvl2=1
CA95 D:8 n0:16 6.88818e-19 $lvl1=3 $lvl2=2
CA96 D n0:16 6.39784e-19 $lvl1=1 $lvl2=2
CA97 D:19 n0:28 5.35514e-19 $lvl1=1 $lvl2=1
CA98 D n0:28 5.14481e-19 $lvl1=1 $lvl2=1
CA99 D:12 n0:25 4.60198e-19 $lvl1=2 $lvl2=1
CA100 D:18 n0:16 4.41181e-19 $lvl1=1 $lvl2=2
CA101 Mmn25:g n0:20 4.24279e-19 $lvl1=3 $lvl2=2
CA102 D:19 n0:25 3.87336e-19 $lvl1=1 $lvl2=1
CA103 D:18 n0:28 3.61378e-19 $lvl1=1 $lvl2=1
CA104 D:19 n0:16 3.31554e-19 $lvl1=1 $lvl2=2
CA105 D:18 n0:25 2.95927e-19 $lvl1=1 $lvl2=1
CA106 D:9 Mmp26:d 2.29202e-19 $lvl1=3 $lvl2=4
CA107 D:20 n0:28 4.41836e-18 $lvl1=1 $lvl2=1
CA108 D:12 n0:16 5.84397e-18 $lvl1=2 $lvl2=2
CA109 D:16 n0:26 6.58644e-18 $lvl1=1 $lvl2=1
CA110 D:20 n0:26 1.33263e-17 $lvl1=1 $lvl2=1
CA111 Mmn25:g VSS!:11 8.94641e-18 $lvl1=3 $lvl2=2
CA112 Mmn25:g VSS!:26 6.54084e-17 $lvl1=3 $lvl2=2
CA113 D:20 VDD! 3.79249e-18 $lvl1=1 $lvl2=1
CA114 D:19 VDD! 3.76192e-18 $lvl1=1 $lvl2=1
CA115 D:14 VDD!:9 2.80322e-18 $lvl1=2 $lvl2=2
CA116 D:18 VDD! 2.67391e-18 $lvl1=1 $lvl2=1
CA117 D:16 VDD! 2.6499e-18 $lvl1=1 $lvl2=1
CA118 D:16 VDD!:37 2.63909e-18 $lvl1=1 $lvl2=1
CA119 D VDD! 2.38478e-18 $lvl1=1 $lvl2=1
CA120 D:12 VDD! 2.10257e-18 $lvl1=2 $lvl2=1
CA121 D VDD!:37 1.64218e-18 $lvl1=1 $lvl2=1
CA122 D:15 VDD! 1.20913e-18 $lvl1=2 $lvl2=1
CA123 D:9 Mmp25:s 1.20214e-18 $lvl1=3 $lvl2=4
CA124 D:19 VDD!:37 1.03565e-18 $lvl1=1 $lvl2=1
CA125 D:18 VDD!:37 9.25352e-19 $lvl1=1 $lvl2=1
CA126 D VDD!:9 8.84944e-19 $lvl1=1 $lvl2=2
CA127 D:20 VDD!:6 7.6394e-19 $lvl1=1 $lvl2=2
CA128 D:20 VDD!:38 7.60275e-19 $lvl1=1 $lvl2=1
CA129 D:20 VDD!:14 4.79652e-19 $lvl1=1 $lvl2=2
CA130 D:20 VDD!:1 4.74821e-19 $lvl1=1 $lvl2=2
CA131 D:16 VDD!:1 2.59079e-19 $lvl1=1 $lvl2=2
CA132 D:16 VDD!:38 2.39139e-19 $lvl1=1 $lvl2=1
CA133 D:19 VDD!:38 2.29792e-19 $lvl1=1 $lvl2=1
CA134 D:15 VDD!:1 2.04854e-19 $lvl1=2 $lvl2=2
CA135 D:14 VDD!:37 1.86469e-19 $lvl1=2 $lvl2=1
CA136 D:20 VDD!:9 1.03097e-17 $lvl1=1 $lvl2=2
CA137 D:12 VDD!:9 5.98885e-18 $lvl1=2 $lvl2=2
CA138 D:8 VDD!:9 1.26129e-16 $lvl1=3 $lvl2=2
CA139 D:9 VDD!:9 7.52471e-18 $lvl1=3 $lvl2=2
CA140 D:20 VDD!:37 1.26003e-17 $lvl1=1 $lvl2=1
CA141 D:15 VDD!:9 1.02157e-17 $lvl1=2 $lvl2=2
CA142 D:9 VDD! 1.40417e-17 $lvl1=3 $lvl2=1
CA143 D:8 VDD!:6 8.77487e-18 $lvl1=3 $lvl2=2
CA144 D:16 VDD!:9 4.50357e-18 $lvl1=1 $lvl2=2
CA145 D:19 RN:34 3.38363e-18 $lvl1=1 $lvl2=1
CA146 Mmn25:g RN:16 2.66132e-18 $lvl1=3 $lvl2=3
CA147 D:9 RN:15 2.47909e-18 $lvl1=3 $lvl2=3
CA148 Mmn25:g RN:26 1.47374e-18 $lvl1=3 $lvl2=2
CA149 D:18 RN:34 1.25685e-18 $lvl1=1 $lvl2=1
CA150 D RN:34 1.18011e-18 $lvl1=1 $lvl2=1
CA151 D:16 RN:34 8.83467e-19 $lvl1=1 $lvl2=1
CA152 D:15 RN:15 7.64848e-19 $lvl1=2 $lvl2=3
CA153 D:19 RN:36 4.39232e-19 $lvl1=1 $lvl2=1
CA154 D:20 RN:34 4.25051e-19 $lvl1=1 $lvl2=1
CA155 D:12 RN:34 4.13131e-19 $lvl1=2 $lvl2=1
CA156 D:19 RN:32 2.29065e-19 $lvl1=1 $lvl2=1
CA157 D:16 RN:36 2.28001e-19 $lvl1=1 $lvl2=1
CA158 D:14 RN:34 2.21442e-19 $lvl1=2 $lvl2=1
CA159 D:19 RN:27 2.20976e-19 $lvl1=1 $lvl2=2
CA160 D:9 RN:16 1.78258e-19 $lvl1=3 $lvl2=3
CA161 D:20 RN:36 1.73929e-19 $lvl1=1 $lvl2=1
CA162 D:19 G:15 3.43668e-18 $lvl1=1 $lvl2=1
CA163 D:16 G:17 2.86348e-18 $lvl1=1 $lvl2=1
CA164 D:20 G:15 2.31073e-18 $lvl1=1 $lvl2=1
CA165 D G:17 1.71811e-18 $lvl1=1 $lvl2=1
CA166 D:15 G:15 1.5458e-18 $lvl1=2 $lvl2=1
CA167 D:14 G:15 1.17823e-18 $lvl1=2 $lvl2=1
CA168 D:18 G:17 6.25449e-19 $lvl1=1 $lvl2=1
CA169 D:9 G:10 5.89287e-19 $lvl1=3 $lvl2=3
CA170 D:19 G:17 5.34276e-19 $lvl1=1 $lvl2=1
CA171 D:12 G:15 4.59172e-19 $lvl1=2 $lvl2=1
CA172 D:15 G:10 4.21412e-19 $lvl1=2 $lvl2=3
CA173 D G:15 5.13171e-18 $lvl1=1 $lvl2=1
CA174 D:20 G:17 4.7318e-18 $lvl1=1 $lvl2=1
CA175 D:18 G:15 3.87368e-18 $lvl1=1 $lvl2=1
CA176 D:16 G:15 3.77405e-18 $lvl1=1 $lvl2=1
ReA1 D:16 D:17 0.052536 $metal1  $L=0.145 $W=0.345000 $SI_W=0.345 $TYPE=10 $DIR=1 $LLX=1.165000 $LLY=2.650000 $URX=1.510000 $URY=2.795000 $lvl=1
ReA2 D:17 D 0.014493 $metal1  $L=0.04 $W=0.345000 $SI_W=0.345 $TYPE=10 $DIR=1 $LLX=1.165000 $LLY=2.610000 $URX=1.510000 $URY=2.650000 $lvl=1
ReA3 D D:18 0.038043 $metal1  $L=0.105 $W=0.345000 $SI_W=0.345 $TYPE=10 $DIR=1 $LLX=1.165000 $LLY=2.505000 $URX=1.510000 $URY=2.610000 $lvl=1
ReA4 D:18 D:19 0.079327 $metal1  $L=0.165 $W=0.260000 $SI_W=0.26 $TYPE=10 $DIR=1 $LLX=1.250000 $LLY=2.340000 $URX=1.510000 $URY=2.505000 $lvl=1
ReA5 D:16 D:20 0.220913 $metal1  $L=0.4595 $W=0.260000 $SI_W=0.26 $TYPE=10 $DIR=1 $LLX=1.250000 $LLY=2.795000 $URX=1.510000 $URY=3.254500 $lvl=1
RfA6 D:12 D:13 25.976471 $li  $L=0.345 $W=0.170000 $SI_W=0.17 $TYPE=10 $DIR=0 $LLX=1.335000 $LLY=2.565000 $URX=1.680000 $URY=2.735000 $lvl=2
RfA7 D:13 D:14 4.141177 $li  $L=0.055 $W=1000000 $SI_W=1000000 $TYPE=1,10 $DIR=0 $LLX=1.280000 $LLY=2.565000 $URX=1.335000 $URY=2.735000 $lvl=2
RfA8 D:14 D:15 19.576471 $li  $L=0.26 $W=0.170000 $SI_W=0.17 $TYPE=10 $DIR=0 $LLX=1.020000 $LLY=2.565000 $URX=1.280000 $URY=2.735000 $lvl=2
RgA9 D:8 Mmp25:g 173.519989 $poly  $L=0.54 $W=0.150000 $SI_W=0.15 $TYPE=10 $DIR=1 $LLX=1.260000 $LLY=3.355000 $URX=1.410000 $URY=3.895000 $lvl=3
RgA10 Mmp25:g D:9 207.699081 $poly  $L=0.705 $W=0.150000 $SI_W=0.15 $TYPE=10 $DIR=1 $LLX=1.260000 $LLY=2.650000 $URX=1.410000 $URY=3.355000 $lvl=3
RgA11 D:9 D:10 34.134449 $poly  $L=0.1645 $W=0.270000 $SI_W=0.27 $TYPE=10 $DIR=1 $LLX=1.200000 $LLY=2.485000 $URX=1.470000 $URY=2.650000 $lvl=3
RgA12 D:10 Mmn25:g 603.347961 $poly  $L=1.8775 $W=0.150000 $SI_W=0.15 $TYPE=10 $DIR=1 $LLX=1.260000 $LLY=0.607500 $URX=1.410000 $URY=2.485000 $lvl=3
RgA13 Mmn25:g D:11 116.483322 $poly  $L=0.3625 $W=0.150000 $SI_W=0.15 $TYPE=10 $DIR=1 $LLX=1.260000 $LLY=0.245000 $URX=1.410000 $URY=0.607500 $lvl=3
RjA14 D:14 D:17 152.000000 $mcon  $L=0.17 $W=0.17 $A=0.0289 $VC=0 $SAVL=0 $SAVC=0 $SI_A=0.0289 $COVER_DIR=0 $LLX=0.000000 $LLY=0.000000 $URX=0.170000 $URY=0.170000 $lvl=6
RiA15 D:9 D:13 15.000000 $licon  $L=0.17 $W=0.17 $A=0.0289 $VC=0 $SAVL=0 $SAVC=0 $SI_A=0.0289 $COVER_DIR=0 $LLX=0.000000 $LLY=0.000000 $URX=0.170000 $URY=0.170000 $lvl=7
*
*|NET n22 4.67717e-16
*|I (Mmp25:d Mmp25 d X 0 1.4105 3.3550) // $llx=1.4105 $lly=3.3550 $urx=1.4105 $ury=3.3550 $lvl=4
*|I (Mmp26:s Mmp26 s X 0 1.6895 3.3550) // $llx=1.6895 $lly=3.3550 $urx=1.6895 $ury=3.3550 $lvl=4
*|S (n22 1.5500 3.7445) // $llx=1.5500 $lly=3.7445 $urx=1.5500 $ury=3.7445 $lvl=2
*|S (n22:3 1.5500 3.3550) // $llx=1.5500 $lly=3.3550 $urx=1.5500 $ury=3.3550 $lvl=2
*|S (n22:4 1.5500 2.9650) // $llx=1.5500 $lly=2.9650 $urx=1.5500 $ury=2.9650 $lvl=2
CN1 Mmp25:d VSS! 9.37267e-19 $lvl=4
CN2 n22:3 VSS! 5.72415e-18 $lvl=2
CN3 n22:4 VSS! 3.47191e-18 $lvl=2
CN4 n22 VSS! 2.35151e-18 $lvl=2
RfN352 n22 n22:3 29.327059 $li  $L=0.3895 $W=0.170000 $SI_W=0.17 $TYPE=10 $DIR=1 $LLX=1.465000 $LLY=3.355000 $URX=1.635000 $URY=3.744500 $lvl=2
RfN353 n22:3 n22:4 29.364706 $li  $L=0.39 $W=0.170000 $SI_W=0.17 $TYPE=10 $DIR=1 $LLX=1.465000 $LLY=2.965000 $URX=1.635000 $URY=3.355000 $lvl=2
Rh_2_N354 Mmp25:d n22:3 7.500000 $licon_diff  $A=0.0578 $VC=0 $SAVL=0 $SAVC=0 $SI_A=0.0578 $COVER_DIR=0 $LLX=0.000000 $LLY=0.000000 $URX=-0.057800 $URY=-2.000000 $lvl=5
RmwN355 Mmp26:s Mmp25:d 0.001000 $diff $W=1000000 $SI_W=1000000 $TYPE=1 $DIR=0
*
*|NET net1 2.71502e-16
*|I (MNM0:d MNM0 d X 0 0.8295 0.6075) // $llx=0.8295 $lly=0.6075 $urx=0.8295 $ury=0.6075 $lvl=4
*|I (Mmn20:s Mmn20 s X 0 0.5505 0.6075) // $llx=0.5505 $lly=0.6075 $urx=0.5505 $ury=0.6075 $lvl=4
*|S (net1 0.6900 0.8195) // $llx=0.6900 $lly=0.8195 $urx=0.6900 $ury=0.8195 $lvl=2
*|S (net1:3 0.6900 0.6050) // $llx=0.6900 $lly=0.6050 $urx=0.6900 $ury=0.6050 $lvl=2
*|S (net1:4 0.6900 0.3950) // $llx=0.6900 $lly=0.3950 $urx=0.6900 $ury=0.3950 $lvl=2
CN5 MNM0:d VSS! 5.35032e-19 $lvl=4
CN6 net1:3 VSS! 9.32859e-18 $lvl=2
CN7 net1:4 VSS! 4.27771e-18 $lvl=2
CN8 net1 VSS! 4.17805e-18 $lvl=2
CN9 net1:3 VSS!:7 1.10364e-18 $lvl1=2 $lvl2=2
CN10 net1:3 VSS!:30 9.17757e-19 $lvl1=2 $lvl2=1
CN11 MNM0:d VSS!:11 8.46663e-19 $lvl1=4 $lvl2=2
CN12 MNM0:d VSS!:12 7.52083e-19 $lvl1=4 $lvl2=2
CN13 net1:3 VSS!:8 6.49338e-19 $lvl1=2 $lvl2=4
CN14 MNM0:d VSS!:26 5.2855e-19 $lvl1=4 $lvl2=2
CN15 net1:4 VSS!:30 3.9027e-19 $lvl1=2 $lvl2=1
CN16 net1:4 VSS!:7 2.52358e-18 $lvl1=2 $lvl2=2
CN17 net1:3 VSS!:11 6.60729e-18 $lvl1=2 $lvl2=2
CN18 net1:4 VSS!:26 3.736e-18 $lvl1=2 $lvl2=2
CN19 net1:4 VSS!:12 2.77959e-18 $lvl1=2 $lvl2=2
CN20 net1:3 VSS!:26 2.07588e-17 $lvl1=2 $lvl2=2
CN21 net1:3 VSS!:12 3.78001e-18 $lvl1=2 $lvl2=2
CN22 net1 VSS!:26 3.49406e-18 $lvl1=2 $lvl2=2
CN23 net1:4 VSS!:11 9.02329e-18 $lvl1=2 $lvl2=2
RfN356 net1 net1:3 16.150589 $li  $L=0.2145 $W=0.170000 $SI_W=0.17 $TYPE=10 $DIR=1 $LLX=0.605000 $LLY=0.605000 $URX=0.775000 $URY=0.819500 $lvl=2
RfN357 net1:3 net1:4 15.811765 $li  $L=0.21 $W=0.170000 $SI_W=0.17 $TYPE=10 $DIR=1 $LLX=0.605000 $LLY=0.395000 $URX=0.775000 $URY=0.605000 $lvl=2
RhN358 MNM0:d net1:3 15.000000 $licon_diff  $L=0.17 $W=0.17 $A=0.0289 $VC=0 $SAVL=0 $SAVC=0 $SI_A=0.0289 $COVER_DIR=0 $LLX=0.000000 $LLY=0.000000 $URX=0.170000 $URY=0.170000 $lvl=5
RmwN359 Mmn20:s MNM0:d 0.001000 $diff $W=1000000 $SI_W=1000000 $TYPE=1 $DIR=0
*
*|NET n21 2.77257e-16
*|I (Mmn26:s Mmn26 s X 0 1.6895 0.6075) // $llx=1.6895 $lly=0.6075 $urx=1.6895 $ury=0.6075 $lvl=4
*|I (Mmn25:d Mmn25 d X 0 1.4105 0.6075) // $llx=1.4105 $lly=0.6075 $urx=1.4105 $ury=0.6075 $lvl=4
*|S (n21 1.5500 0.8195) // $llx=1.5500 $lly=0.8195 $urx=1.5500 $ury=0.8195 $lvl=2
*|S (n21:3 1.5500 0.6050) // $llx=1.5500 $lly=0.6050 $urx=1.5500 $ury=0.6050 $lvl=2
*|S (n21:4 1.5500 0.3950) // $llx=1.5500 $lly=0.3950 $urx=1.5500 $ury=0.3950 $lvl=2
CN24 Mmn26:s VSS! 1.41135e-18 $lvl=4
CN25 n21:3 VSS! 9.9221e-18 $lvl=2
CN26 n21:4 VSS! 4.49201e-18 $lvl=2
CN27 n21 VSS! 3.51942e-18 $lvl=2
CN28 n21:3 VSS!:7 1.33946e-18 $lvl1=2 $lvl2=2
CN29 n21:3 VSS!:8 8.59032e-19 $lvl1=2 $lvl2=4
CN30 n21:3 Mmn25:s 4.99358e-19 $lvl1=2 $lvl2=4
CN31 n21:3 VSS!:11 1.04963e-17 $lvl1=2 $lvl2=2
CN32 n21:4 VSS!:26 4.14583e-18 $lvl1=2 $lvl2=2
CN33 n21 VSS!:26 3.44767e-18 $lvl1=2 $lvl2=2
CN34 n21:3 VSS!:26 2.17901e-17 $lvl1=2 $lvl2=2
CN35 n21:4 VSS!:7 1.99734e-18 $lvl1=2 $lvl2=2
CN36 Mmn26:s VSS!:11 1.74056e-18 $lvl1=4 $lvl2=2
CN37 n21:4 VSS!:11 1.09095e-17 $lvl1=2 $lvl2=2
RfN360 n21 n21:3 16.150589 $li  $L=0.2145 $W=0.170000 $SI_W=0.17 $TYPE=10 $DIR=1 $LLX=1.465000 $LLY=0.605000 $URX=1.635000 $URY=0.819500 $lvl=2
RfN361 n21:3 n21:4 15.811765 $li  $L=0.21 $W=0.170000 $SI_W=0.17 $TYPE=10 $DIR=1 $LLX=1.465000 $LLY=0.395000 $URX=1.635000 $URY=0.605000 $lvl=2
RhN362 Mmn26:s n21:3 15.000000 $licon_diff  $L=0.17 $W=0.17 $A=0.0289 $VC=0 $SAVL=0 $SAVC=0 $SI_A=0.0289 $COVER_DIR=0 $LLX=0.000000 $LLY=0.000000 $URX=0.170000 $URY=0.170000 $lvl=5
RmwN363 Mmn25:d Mmn26:s 0.001000 $diff $W=1000000 $SI_W=1000000 $TYPE=1 $DIR=0
*
*|NET QN 1.2289e-15
*|P (QN X 0 8.2920 2.0740) // $llx=8.2920 $lly=2.0740 $urx=8.2920 $ury=2.0740 $lvl=1
*|I (Mmp57:d Mmp57 d X 0 7.9255 3.0150) // $llx=7.9255 $lly=3.0150 $urx=7.9255 $ury=3.0150 $lvl=4
*|I (Mmn57:d Mmn57 d X 0 7.9255 0.7750) // $llx=7.9255 $lly=0.7750 $urx=7.9255 $ury=0.7750 $lvl=4
*|S (QN:1 8.0650 3.7450) // $llx=8.0650 $lly=3.7450 $urx=8.0650 $ury=3.7450 $lvl=2
*|S (QN:3 8.0650 3.0150) // $llx=8.0650 $lly=3.0150 $urx=8.0650 $ury=3.0150 $lvl=2
*|S (QN:4 8.0650 2.9450) // $llx=8.0650 $lly=2.9450 $urx=8.0650 $ury=2.9450 $lvl=2
*|S (QN:5 8.0650 2.2850) // $llx=8.0650 $lly=2.2850 $urx=8.0650 $ury=2.2850 $lvl=2
*|S (QN:6 8.0650 1.1550) // $llx=8.0650 $lly=1.1550 $urx=8.0650 $ury=1.1550 $lvl=2
*|S (QN:7 8.0650 0.8100) // $llx=8.0650 $lly=0.8100 $urx=8.0650 $ury=0.8100 $lvl=2
*|S (QN:9 8.0650 0.7750) // $llx=8.0650 $lly=0.7750 $urx=8.0650 $ury=0.7750 $lvl=2
*|S (QN:10 8.0650 0.3950) // $llx=8.0650 $lly=0.3950 $urx=8.0650 $ury=0.3950 $lvl=2
*|S (QN:11 8.1800 3.4500) // $llx=8.1800 $lly=3.4500 $urx=8.1800 $ury=3.4500 $lvl=1
*|S (QN:12 8.0650 2.9450) // $llx=8.0650 $lly=2.9450 $urx=8.0650 $ury=2.9450 $lvl=1
*|S (QN:13 8.1800 2.4400) // $llx=8.1800 $lly=2.4400 $urx=8.1800 $ury=2.4400 $lvl=1
*|S (QN:14 8.2800 0.8100) // $llx=8.2800 $lly=0.8100 $urx=8.2800 $ury=0.8100 $lvl=1
*|S (QN:15 8.0650 0.8100) // $llx=8.0650 $lly=0.8100 $urx=8.0650 $ury=0.8100 $lvl=1
CD1 Mmn57:d VSS! 1.47255e-18 $lvl=4
CD2 Mmp57:d VSS! 1.16994e-18 $lvl=4
CD3 QN:15 VSS! 1.31568e-17 $lvl=1
CD4 QN:13 VSS! 4.88672e-18 $lvl=1
CD5 QN:12 VSS! 8.53976e-18 $lvl=1
CD6 QN:11 VSS! 3.08801e-18 $lvl=1
CD7 QN:6 VSS! 1.65637e-17 $lvl=2
CD8 QN:10 VSS! 1.25951e-18 $lvl=2
CD9 QN:1 VSS! 5.40146e-18 $lvl=2
CD10 QN:5 VSS! 2.80478e-18 $lvl=2
CD11 QN:7 VSS! 2.03537e-18 $lvl=2
CD12 QN:4 VSS! 1.83423e-18 $lvl=2
CD13 QN VSS! 9.33259e-18 $lvl=1
CD14 QN Qbint:23 1.20996e-18 $lvl1=1 $lvl2=2
CD15 QN:12 Qbint:28 1.03765e-18 $lvl1=1 $lvl2=1
CD16 QN:15 Qbint:30 9.55744e-19 $lvl1=1 $lvl2=1
CD17 QN:15 Qbint:23 8.23509e-19 $lvl1=1 $lvl2=2
CD18 QN:15 Qbint:29 7.23869e-19 $lvl1=1 $lvl2=1
CD19 QN:1 Qbint:8 6.28452e-19 $lvl1=2 $lvl2=3
CD20 QN:5 Qbint:23 6.07819e-19 $lvl1=2 $lvl2=2
CD21 QN:15 Qbint:28 5.48465e-19 $lvl1=1 $lvl2=1
CD22 QN Qbint:10 5.37931e-19 $lvl1=1 $lvl2=3
CD23 QN:1 Qbint:23 4.98876e-19 $lvl1=2 $lvl2=2
CD24 QN:1 Qbint:10 4.9122e-19 $lvl1=2 $lvl2=3
CD25 QN:5 Qbint:10 4.88842e-19 $lvl1=2 $lvl2=3
CD26 QN Qbint:29 4.32475e-19 $lvl1=1 $lvl2=1
CD27 QN:12 Qbint:29 4.13484e-19 $lvl1=1 $lvl2=1
CD28 QN:7 Qint:39 3.55321e-18 $lvl1=2 $lvl2=2
CD29 QN:15 Qint:32 2.32777e-18 $lvl1=1 $lvl2=3
CD30 Mmn57:d Qint:32 2.00904e-18 $lvl1=4 $lvl2=3
CD31 QN Qint:32 1.84262e-18 $lvl1=1 $lvl2=3
CD32 QN:5 Qint:31 1.31404e-18 $lvl1=2 $lvl2=3
CD33 QN:5 Qint:39 1.23953e-18 $lvl1=2 $lvl2=2
CD34 QN:1 Qint:32 1.10731e-18 $lvl1=2 $lvl2=3
CD35 QN:5 Qint:32 9.96647e-19 $lvl1=2 $lvl2=3
CD36 QN:1 Qint:39 8.3898e-19 $lvl1=2 $lvl2=2
CD37 Mmp57:d Qint:32 6.45676e-19 $lvl1=4 $lvl2=3
CD38 QN:13 Qint:39 5.46752e-19 $lvl1=1 $lvl2=2
CD39 QN:10 Mmn57:g 5.41674e-19 $lvl1=2 $lvl2=3
CD40 QN:12 Qint:53 4.898e-19 $lvl1=1 $lvl2=1
CD41 QN:12 Qint:39 4.70946e-19 $lvl1=1 $lvl2=2
CD42 QN:6 Mmn57:g 1.2646e-16 $lvl1=2 $lvl2=3
CD43 QN Qint:39 6.83653e-18 $lvl1=1 $lvl2=2
CD44 QN:15 Qint:39 1.2305e-17 $lvl1=1 $lvl2=2
CD45 QN:6 Qint:39 1.6483e-17 $lvl1=2 $lvl2=2
CD46 QN:6 Qint:32 1.24264e-17 $lvl1=2 $lvl2=3
CD47 QN:1 Qint:31 2.52689e-16 $lvl1=2 $lvl2=3
CD48 QN:10 VSS!:1 5.94113e-18 $lvl1=2 $lvl2=2
CD49 QN:15 VSS!:1 5.24082e-18 $lvl1=1 $lvl2=2
CD50 Mmn57:d VSS!:4 4.29618e-18 $lvl1=4 $lvl2=2
CD51 QN:7 VSS!:28 3.25304e-18 $lvl1=2 $lvl2=1
CD52 QN:6 VSS!:8 2.5547e-18 $lvl1=2 $lvl2=4
CD53 QN:10 VSS!:13 2.54728e-18 $lvl1=2 $lvl2=2
CD54 QN:6 VSS!:27 2.17494e-18 $lvl1=2 $lvl2=1
CD55 QN:10 VSS!:28 2.12358e-18 $lvl1=2 $lvl2=1
CD56 QN:7 VSS!:4 2.12211e-18 $lvl1=2 $lvl2=2
CD57 QN:15 VSS!:13 1.90268e-18 $lvl1=1 $lvl2=2
CD58 QN:6 VSS!:28 1.88717e-18 $lvl1=2 $lvl2=1
CD59 QN VSS!:27 1.19284e-18 $lvl1=1 $lvl2=1
CD60 QN:6 VSS!:13 1.05532e-18 $lvl1=2 $lvl2=2
CD61 QN VSS!:28 1.02462e-18 $lvl1=1 $lvl2=1
CD62 QN:7 VSS!:27 9.8657e-19 $lvl1=2 $lvl2=1
CD63 Mmn57:d VSS!:27 9.83456e-19 $lvl1=4 $lvl2=1
CD64 QN:7 VSS!:13 8.68026e-19 $lvl1=2 $lvl2=2
CD65 QN:15 VSS!:8 8.14038e-19 $lvl1=1 $lvl2=4
CD66 QN:10 VSS!:27 7.60836e-19 $lvl1=2 $lvl2=1
CD67 QN VSS!:4 6.20225e-19 $lvl1=1 $lvl2=2
CD68 QN:15 VSS!:4 6.15092e-18 $lvl1=1 $lvl2=2
CD69 QN:15 VSS!:27 1.72415e-17 $lvl1=1 $lvl2=1
CD70 QN:6 VSS!:1 4.44148e-17 $lvl1=2 $lvl2=2
CD71 QN:15 VSS!:28 3.64314e-17 $lvl1=1 $lvl2=1
CD72 QN:10 VSS!:4 1.50098e-17 $lvl1=2 $lvl2=2
CD73 QN:7 VSS!:1 6.90697e-18 $lvl1=2 $lvl2=2
CD74 QN:6 VSS!:4 1.52741e-17 $lvl1=2 $lvl2=2
CD75 Mmp57:d VDD!:29 4.35371e-18 $lvl1=4 $lvl2=2
CD76 QN:1 VDD!:35 4.24625e-18 $lvl1=2 $lvl2=1
CD77 QN:1 VDD!:33 3.82642e-18 $lvl1=2 $lvl2=2
CD78 QN:12 VDD!:29 3.16744e-18 $lvl1=1 $lvl2=2
CD79 QN:5 VDD! 3.06728e-18 $lvl1=2 $lvl2=1
CD80 QN:1 VDD!:15 2.94029e-18 $lvl1=2 $lvl2=4
CD81 QN:11 VDD!:29 2.44224e-18 $lvl1=1 $lvl2=2
CD82 QN VDD!:32 2.29712e-18 $lvl1=1 $lvl2=2
CD83 QN:11 VDD!:32 2.02182e-18 $lvl1=1 $lvl2=2
CD84 QN:12 VDD!:37 2.0164e-18 $lvl1=1 $lvl2=1
CD85 QN:4 VDD! 1.71189e-18 $lvl1=2 $lvl2=1
CD86 QN:7 VDD! 1.61302e-18 $lvl1=2 $lvl2=1
CD87 QN:13 VDD!:32 1.59749e-18 $lvl1=1 $lvl2=2
CD88 QN:15 VDD!:37 1.30016e-18 $lvl1=1 $lvl2=1
CD89 Mmp57:d VDD!:32 1.14328e-18 $lvl1=4 $lvl2=2
CD90 QN VDD!:35 1.04564e-18 $lvl1=1 $lvl2=1
CD91 QN:11 VDD!:33 8.92051e-19 $lvl1=1 $lvl2=2
CD92 QN VDD!:36 8.51376e-19 $lvl1=1 $lvl2=1
CD93 QN:4 VDD!:36 8.3809e-19 $lvl1=2 $lvl2=1
CD94 QN:15 VDD!:35 7.9339e-19 $lvl1=1 $lvl2=1
CD95 QN:15 VDD!:36 7.90202e-19 $lvl1=1 $lvl2=1
CD96 QN:10 VDD! 6.82562e-19 $lvl1=2 $lvl2=1
CD97 QN VDD!:37 6.53955e-19 $lvl1=1 $lvl2=1
CD98 QN:11 VDD!:37 6.00136e-19 $lvl1=1 $lvl2=1
CD99 QN:4 VDD!:35 5.53644e-19 $lvl1=2 $lvl2=1
CD100 QN:13 VDD!:35 5.48433e-19 $lvl1=1 $lvl2=1
CD101 QN:15 VDD!:32 5.24967e-19 $lvl1=1 $lvl2=2
CD102 QN:12 VDD!:33 5.09555e-19 $lvl1=1 $lvl2=2
CD103 QN:1 VDD!:32 9.5667e-17 $lvl1=2 $lvl2=2
CD104 QN:12 VDD!:32 1.0925e-17 $lvl1=1 $lvl2=2
CD105 QN:11 VDD!:36 1.37059e-17 $lvl1=1 $lvl2=1
CD106 QN:11 VDD!:35 6.72683e-18 $lvl1=1 $lvl2=1
CD107 QN:5 VDD!:32 7.85921e-18 $lvl1=2 $lvl2=2
CD108 QN:4 VDD!:32 1.02852e-17 $lvl1=2 $lvl2=2
CD109 QN:1 VDD!:29 3.03026e-17 $lvl1=2 $lvl2=2
CD110 QN:6 VDD! 8.54213e-18 $lvl1=2 $lvl2=1
CD111 QN:1 VDD! 3.86174e-17 $lvl1=2 $lvl2=1
CD112 QN:15 VDD! 3.2425e-17 $lvl1=1 $lvl2=1
CD113 QN:13 VDD! 6.49317e-18 $lvl1=1 $lvl2=1
CD114 QN:12 VDD!:36 8.04157e-18 $lvl1=1 $lvl2=1
CD115 QN:12 VDD! 3.09808e-17 $lvl1=1 $lvl2=1
CD116 QN:11 VDD! 6.53251e-18 $lvl1=1 $lvl2=1
CD117 QN VDD! 2.05585e-17 $lvl1=1 $lvl2=1
CD118 QN:1 VDD!:36 6.25476e-18 $lvl1=2 $lvl2=1