*
*|DSPF 1.5
*
*|DATE "Wed Jan  8 18:29:03 2025"
*|VENDOR "Cadence Design Systems"
*|PROGRAM "Cadence Quantus Extraction"
*|VERSION "22.1.0-p089 Linux 64 bit - (Thu Jan 19 11:47:08 PST 2023)"
*|DESIGN XNOR2X2_HS
*|DIVIDER /
*|DELIMITER :
*|DeviceFingerDelim "@"
*|BUSBIT []
*|GLOBAL_TEMPERATURE 25
*|OPERATING_TEMPERATURE 25

** *VIA_COVERAGE_CODES
** *index FF FS FP FU SF SS SP SU PF PS PP PU UF US UP UU X_by_Y
** * "FF" stands for Full landing and Full coverage
** *0 0 0 0 0 0 0 0 0 0 0 0 0 0 0 0 0
** *1 0 0 0 0 0 0 0 0 0 0 0 0 0 0 0 1 1x1
** *2 0 0 0 0 0 0 0 0 0 0 0 0 0 0 1 0 1x1
** *3 0 0 0 0 0 0 0 0 0 0 0 0 0 1 0 0 1x1
** *4 0 0 0 0 0 0 0 0 0 0 0 0 1 0 0 0 1x1
** *5 0 0 0 0 0 0 0 0 0 0 0 1 0 0 0 0 1x1
** *6 0 0 0 0 0 0 0 0 0 0 1 0 0 0 0 0 1x1
** *7 0 0 0 0 0 0 0 0 0 1 0 0 0 0 0 0 1x1
** *8 0 0 0 0 0 0 0 0 1 0 0 0 0 0 0 0 1x1
** *9 0 0 0 0 0 0 0 1 0 0 0 0 0 0 0 0 1x1
** *10 0 0 0 0 0 0 1 0 0 0 0 0 0 0 0 0 1x1
** *11 0 0 0 0 0 1 0 0 0 0 0 0 0 0 0 0 1x1
** *12 0 0 0 0 1 0 0 0 0 0 0 0 0 0 0 0 1x1
** *13 0 0 0 1 0 0 0 0 0 0 0 0 0 0 0 0 1x1
** *14 0 0 1 0 0 0 0 0 0 0 0 0 0 0 0 0 1x1
** *15 0 1 0 0 0 0 0 0 0 0 0 0 0 0 0 0 1x1
** *16 1 0 0 0 0 0 0 0 0 0 0 0 0 0 0 0 1x1

** *RESISTOR_TYPES
** *1 SHORTING_ELEMENT
** *2 PRES_NG
** *3 PRES_PG
** *4 PRES_NF
** *5 PRES_PF
** *6 TCN_NDIFF
** *7 TCN_PDIFF
** *8 TCN_NFIELD
** *9 TCN_PFIELD
** *10 QUALITY_EXTRACTED
** *11 GCNLAND
** *12 TCNLAND
** *13 DUMMY
** *14 RSD
** *15 BRIDGE

** *RESISTOR_CURRENT_DIRECTION
** *0 HORIZONTAL
** *1 VERTICAL
** *2 45 DEGREE

** QRC_TECH_DIR /vols/wfo_devel/projects/reference_SKY130/tech/sky130_release_0.0.4/quantus/extraction/typical 
** HIERARCHICAL_SPLIT_PINS_DELIMITER '%'
** caps2d version: 10
*
.SUBCKT  XNOR2X2_HS A B Y
*
*Net Section
*
*|GROUND_NET VSS!
*
*LAYER_MAP
*0 none
*1 metal1
*2 li
*3 poly
*4 diff
*5 licon_diff
*6 mcon
*7 licon
*8 FOX

*|NET A 1.04891e-15
*|P (A X 0 1.3950 1.5800) // $llx=1.3950 $lly=1.5800 $urx=1.3950 $ury=1.5800 $lvl=1
*|I (Mmp0:g Mmp0 g X 0 0.9050 3.3550) // $llx=0.9050 $lly=3.3550 $urx=0.9050 $ury=3.3550 $lvl=3
*|I (Mmn0:g Mmn0 g X 0 0.9050 0.6825) // $llx=0.9050 $lly=0.6825 $urx=0.9050 $ury=0.6825 $lvl=3
*|S (A:8 0.9050 3.8950) // $llx=0.9050 $lly=3.8950 $urx=0.9050 $ury=3.8950 $lvl=3
*|S (A:9 0.9050 1.2050) // $llx=0.9050 $lly=1.2050 $urx=0.9050 $ury=1.2050 $lvl=3
*|S (A:10 0.9050 1.0400) // $llx=0.9050 $lly=1.0400 $urx=0.9050 $ury=1.0400 $lvl=3
*|S (A:11 0.9050 0.3200) // $llx=0.9050 $lly=0.3200 $urx=0.9050 $ury=0.3200 $lvl=3
*|S (A:12 1.0850 1.2050) // $llx=1.0850 $lly=1.2050 $urx=1.0850 $ury=1.2050 $lvl=2
*|S (A:13 0.9200 1.2050) // $llx=0.9200 $lly=1.2050 $urx=0.9200 $ury=1.2050 $lvl=2
*|S (A:14 0.9050 1.2050) // $llx=0.9050 $lly=1.2050 $urx=0.9050 $ury=1.2050 $lvl=2
*|S (A:15 0.7200 1.2050) // $llx=0.7200 $lly=1.2050 $urx=0.7200 $ury=1.2050 $lvl=2
*|S (A:16 1.3800 2.2950) // $llx=1.3800 $lly=2.2950 $urx=1.3800 $ury=2.2950 $lvl=1
*|S (A:17 1.3800 1.2050) // $llx=1.3800 $lly=1.2050 $urx=1.3800 $ury=1.2050 $lvl=1
*|S (A:18 0.9200 1.2050) // $llx=0.9200 $lly=1.2050 $urx=0.9200 $ury=1.2050 $lvl=1
*|S (A:19 0.7750 1.2050) // $llx=0.7750 $lly=1.2050 $urx=0.7750 $ury=1.2050 $lvl=1
CA1 Mmn0:g VSS! 1.82624e-18 $lvl=3
CA2 Mmp0:g VSS! 1.50827e-18 $lvl=3
CA3 A:12 VSS! 3.26e-18 $lvl=2
CA4 A:15 VSS! 3.39089e-18 $lvl=2
CA5 A:16 VSS! 8.19996e-18 $lvl=1
CA6 A:19 VSS! 5.95747e-18 $lvl=1
CA7 A:17 VSS! 4.68411e-18 $lvl=1
CA8 A:13 VSS! 3.56229e-18 $lvl=2
CA9 A:9 VSS! 1.89704e-17 $lvl=3
CA10 A:17 n2:21 3.9539e-18 $lvl1=1 $lvl2=2
CA11 A:19 n2:31 3.33266e-18 $lvl1=1 $lvl2=1
CA12 A:13 n2:33 2.6886e-18 $lvl1=2 $lvl2=1
CA13 A:15 n2:33 2.68415e-18 $lvl1=2 $lvl2=1
CA14 A:15 n2:14 2.00425e-18 $lvl1=2 $lvl2=2
CA15 A:9 n2:14 1.96612e-18 $lvl1=3 $lvl2=2
CA16 A:9 n2:13 1.91986e-18 $lvl1=3 $lvl2=3
CA17 Mmp0:g n2:10 1.8252e-18 $lvl1=3 $lvl2=3
CA18 A:12 n2:21 1.81087e-18 $lvl1=2 $lvl2=2
CA19 A:16 n2:21 1.55575e-18 $lvl1=1 $lvl2=2
CA20 A:16 n2:31 1.42144e-18 $lvl1=1 $lvl2=1
CA21 A:16 n2:36 1.40979e-18 $lvl1=1 $lvl2=1
CA22 A:16 n2:38 1.39714e-18 $lvl1=1 $lvl2=1
CA23 Mmp0:g n2:25 1.37326e-18 $lvl1=3 $lvl2=2
CA24 A:17 n2:38 1.11059e-18 $lvl1=1 $lvl2=1
CA25 A:9 n2:33 1.08255e-18 $lvl1=3 $lvl2=1
CA26 A:17 n2:33 1.04511e-18 $lvl1=1 $lvl2=1
CA27 A:16 n2:33 1.02926e-18 $lvl1=1 $lvl2=1
CA28 A:9 n2:21 1.0198e-18 $lvl1=3 $lvl2=2
CA29 A:19 n2:14 9.41156e-19 $lvl1=1 $lvl2=2
CA30 A:16 n2:29 9.18014e-19 $lvl1=1 $lvl2=1
CA31 A:12 n2:13 9.11121e-19 $lvl1=2 $lvl2=3
CA32 Mmp0:g n2:24 8.49359e-19 $lvl1=3 $lvl2=2
CA33 A:9 n2:31 8.05179e-19 $lvl1=3 $lvl2=1
CA34 A:13 n2:14 7.89298e-19 $lvl1=2 $lvl2=2
CA35 A:13 n2:31 7.64541e-19 $lvl1=2 $lvl2=1
CA36 A:15 n2:31 7.37219e-19 $lvl1=2 $lvl2=1
CA37 Mmp0:g n2:28 7.27903e-19 $lvl1=3 $lvl2=2
CA38 A:16 n2:22 7.15254e-19 $lvl1=1 $lvl2=2
CA39 A:16 n2:34 6.88845e-19 $lvl1=1 $lvl2=1
CA40 A:13 n2:21 6.01822e-19 $lvl1=2 $lvl2=2
CA41 A:17 n2:13 5.8512e-19 $lvl1=1 $lvl2=3
CA42 A:16 n2:25 5.7314e-19 $lvl1=1 $lvl2=2
CA43 Mmn0:g n2:14 4.73451e-19 $lvl1=3 $lvl2=2
CA44 A:17 n2:31 4.16065e-19 $lvl1=1 $lvl2=1
CA45 A:9 Mmn1:d 3.91215e-19 $lvl1=3 $lvl2=4
CA46 A:16 n2:10 3.85116e-19 $lvl1=1 $lvl2=3
CA47 A:16 n2:13 3.78755e-19 $lvl1=1 $lvl2=3
CA48 A:17 n2:19 3.57668e-19 $lvl1=1 $lvl2=2
CA49 Mmn0:g n2:13 3.44186e-19 $lvl1=3 $lvl2=3
CA50 A:19 n2:17 3.19008e-19 $lvl1=1 $lvl2=2
CA51 A:12 n2:33 2.96959e-19 $lvl1=2 $lvl2=1
CA52 A:16 n2:23 2.96928e-19 $lvl1=1 $lvl2=2
CA53 A:9 n2:11 2.79742e-19 $lvl1=3 $lvl2=3
CA54 A:19 n2:38 2.69172e-19 $lvl1=1 $lvl2=1
CA55 A:19 n2:33 1.75588e-17 $lvl1=1 $lvl2=1
CA56 A:16 n2:24 6.14444e-18 $lvl1=1 $lvl2=2
CA57 A:17 n0:28 1.90369e-18 $lvl1=1 $lvl2=2
CA58 A:12 n0:28 1.65155e-18 $lvl1=2 $lvl2=2
CA59 A:17 n0:40 1.1284e-18 $lvl1=1 $lvl2=1
CA60 A:9 n0:28 1.05363e-18 $lvl1=3 $lvl2=2
CA61 A:16 n0:38 1.03926e-18 $lvl1=1 $lvl2=1
CA62 A:16 n0:39 8.87429e-19 $lvl1=1 $lvl2=1
CA63 A:16 n0:37 7.30329e-19 $lvl1=1 $lvl2=1
CA64 A:17 n0:39 6.73658e-19 $lvl1=1 $lvl2=1
CA65 Mmp0:g n0:23 5.77199e-19 $lvl1=3 $lvl2=2
CA66 A:13 n0:28 5.3644e-19 $lvl1=2 $lvl2=2
CA67 A:13 n1:20 4.24378e-18 $lvl1=2 $lvl2=2
CA68 A:16 n1:25 2.89957e-18 $lvl1=1 $lvl2=2
CA69 A:13 n1:29 2.12165e-18 $lvl1=2 $lvl2=1
CA70 A:19 n1:26 2.0565e-18 $lvl1=1 $lvl2=1
CA71 A:17 n1:20 1.96288e-18 $lvl1=1 $lvl2=2
CA72 A:19 n1:28 1.37495e-18 $lvl1=1 $lvl2=1
CA73 A:16 n1:30 1.34463e-18 $lvl1=1 $lvl2=1
CA74 A:9 Mmn4:s 1.24686e-18 $lvl1=3 $lvl2=4
CA75 A:17 n1:24 1.13419e-18 $lvl1=1 $lvl2=2
CA76 A:19 n1:20 1.12707e-18 $lvl1=1 $lvl2=2
CA77 Mmn0:g n1:21 1.08574e-18 $lvl1=3 $lvl2=2
CA78 A:19 n1:30 1.02489e-18 $lvl1=1 $lvl2=1
CA79 Mmp0:g n1:17 9.47191e-19 $lvl1=3 $lvl2=2
CA80 A:17 n1:25 8.39703e-19 $lvl1=1 $lvl2=2
CA81 A:9 n1:25 8.08469e-19 $lvl1=3 $lvl2=2
CA82 A:15 n1:20 7.48236e-19 $lvl1=2 $lvl2=2
CA83 A:16 n1:37 7.39544e-19 $lvl1=1 $lvl2=1
CA84 A:19 n1:21 6.36453e-19 $lvl1=1 $lvl2=2
CA85 A:12 n1:29 6.3369e-19 $lvl1=2 $lvl2=1
CA86 A:12 n1:25 5.93528e-19 $lvl1=2 $lvl2=2
CA87 A:16 n1:29 5.86755e-19 $lvl1=1 $lvl2=1
CA88 A:17 n1:26 5.78618e-19 $lvl1=1 $lvl2=1
CA89 A:13 n1:21 4.90717e-19 $lvl1=2 $lvl2=2
CA90 A:17 n1:33 4.6431e-19 $lvl1=1 $lvl2=1
CA91 A:19 n1:31 4.26614e-19 $lvl1=1 $lvl2=1
CA92 A:17 n1:28 3.22163e-19 $lvl1=1 $lvl2=1
CA93 A:12 n1:30 3.05124e-19 $lvl1=2 $lvl2=1
CA94 A:13 n1:25 2.91512e-19 $lvl1=2 $lvl2=2
CA95 A:17 n1:21 2.61347e-19 $lvl1=1 $lvl2=2
CA96 A:12 n1:24 2.37203e-19 $lvl1=2 $lvl2=2
CA97 A:16 n1:24 5.46137e-18 $lvl1=1 $lvl2=2
CA98 A:12 n1:20 6.54482e-18 $lvl1=2 $lvl2=2
CA99 A:17 n1:29 2.60053e-17 $lvl1=1 $lvl2=1
CA100 A:17 n1:31 2.75256e-17 $lvl1=1 $lvl2=1
CA101 Mmn0:g n1:20 6.68245e-17 $lvl1=3 $lvl2=2
CA102 A:17 n1:30 3.56056e-17 $lvl1=1 $lvl2=1
CA103 A:16 n1:33 5.30838e-17 $lvl1=1 $lvl2=1
CA104 A:16 n1:34 2.48005e-17 $lvl1=1 $lvl2=1
CA105 A:19 n1:29 2.12136e-17 $lvl1=1 $lvl2=1
CA106 A:16 n1:35 9.43652e-18 $lvl1=1 $lvl2=1
CA107 A:9 n1:20 7.48726e-18 $lvl1=3 $lvl2=2
CA108 Mmp0:g n1:13 1.29919e-16 $lvl1=3 $lvl2=2
CA109 A:16 n1:31 4.17622e-17 $lvl1=1 $lvl2=1
CA110 A:13 VSS!:16 4.97363e-18 $lvl1=2 $lvl2=2
CA111 A:19 VSS!:19 2.42158e-18 $lvl1=1 $lvl2=1
CA112 A:19 VSS!:16 2.30914e-18 $lvl1=1 $lvl2=2
CA113 A:12 VSS!:16 2.24419e-18 $lvl1=2 $lvl2=2
CA114 A:17 VSS!:19 1.15803e-18 $lvl1=1 $lvl2=1
CA115 Mmn0:g VSS!:16 6.76374e-17 $lvl1=3 $lvl2=2
CA116 A:15 VSS!:16 5.28111e-18 $lvl1=2 $lvl2=2
CA117 Mmn0:g VSS!:9 6.97076e-18 $lvl1=3 $lvl2=2
CA118 A:9 VSS!:16 7.76165e-18 $lvl1=3 $lvl2=2
CA119 A:19 VDD! 3.92305e-18 $lvl1=1 $lvl2=1
CA120 A:17 VDD! 2.74253e-18 $lvl1=1 $lvl2=1
CA121 A:9 VDD! 1.93084e-18 $lvl1=3 $lvl2=1
CA122 Mmp0:g VDD!:3 1.28205e-16 $lvl1=3 $lvl2=2
CA123 Mmp0:g VDD!:4 8.28076e-18 $lvl1=3 $lvl2=2
CA124 A:16 VDD! 5.38844e-18 $lvl1=1 $lvl2=1
CA125 A:13 B:31 4.8682e-18 $lvl1=2 $lvl2=1
CA126 A:9 Mmn1:g 2.74853e-18 $lvl1=3 $lvl2=3
CA127 A:9 Mmn4:g 2.34904e-18 $lvl1=3 $lvl2=3
CA128 A:9 B:27 2.28829e-18 $lvl1=3 $lvl2=2
CA129 A:9 B:16 2.21217e-18 $lvl1=3 $lvl2=3
CA130 A:9 B:22 1.5524e-18 $lvl1=3 $lvl2=3
CA131 A:15 B:31 1.28505e-18 $lvl1=2 $lvl2=1
CA132 A:9 B:31 1.2571e-18 $lvl1=3 $lvl2=1
CA133 A:12 B:31 1.25263e-18 $lvl1=2 $lvl2=1
CA134 A:12 B:27 1.23392e-18 $lvl1=2 $lvl2=2
CA135 A:13 B:27 1.20538e-18 $lvl1=2 $lvl2=2
CA136 A:16 B:22 9.83788e-19 $lvl1=1 $lvl2=3
CA137 A:9 B:29 8.73873e-19 $lvl1=3 $lvl2=2
CA138 A:15 B:16 8.31565e-19 $lvl1=2 $lvl2=3
CA139 A:15 B:29 7.86444e-19 $lvl1=2 $lvl2=2
CA140 A:9 B:25 7.76675e-19 $lvl1=3 $lvl2=2
CA141 A:15 B:27 6.78062e-19 $lvl1=2 $lvl2=2
CA142 A:12 B:22 5.59161e-19 $lvl1=2 $lvl2=3
CA143 A:12 Mmn4:g 5.40187e-19 $lvl1=2 $lvl2=3
CA144 A:13 B:29 5.39788e-19 $lvl1=2 $lvl2=2
CA145 A:12 B:25 5.3726e-19 $lvl1=2 $lvl2=2
CA146 A:17 B:27 4.93013e-19 $lvl1=1 $lvl2=2
CA147 A:13 B:16 4.43258e-19 $lvl1=2 $lvl2=3
CA148 A:17 B:25 4.39202e-19 $lvl1=1 $lvl2=2
CA149 A:15 Mmn1:g 4.17507e-19 $lvl1=2 $lvl2=3
CA150 A:19 B:27 3.61329e-19 $lvl1=1 $lvl2=2
CA151 A:19 B:31 3.79783e-17 $lvl1=1 $lvl2=1
CA152 A:16 B:31 5.84801e-17 $lvl1=1 $lvl2=1
CA153 A:16 B:30 1.93539e-17 $lvl1=1 $lvl2=1
CA154 A:16 B:25 1.33748e-17 $lvl1=1 $lvl2=2
CA155 A:16 B:27 7.00343e-18 $lvl1=1 $lvl2=2
CA156 A:17 B:31 8.07819e-18 $lvl1=1 $lvl2=1
ReA1 A:16 A 0.343750 $metal1  $L=0.715 $W=0.260000 $SI_W=0.26 $TYPE=10 $DIR=1 $LLX=1.250000 $LLY=1.580000 $URX=1.510000 $URY=2.295000 $lvl=1
ReA2 A A:17 0.180168 $metal1  $L=0.37475 $W=0.260000 $SI_W=0.26 $TYPE=10 $DIR=1 $LLX=1.250000 $LLY=1.205000 $URX=1.510000 $URY=1.580000 $lvl=1
ReA3 A:17 A:18 0.250136 $metal1  $L=0.46025 $W=0.230000 $SI_W=0.23 $TYPE=10 $DIR=0 $LLX=0.920000 $LLY=1.090000 $URX=1.380000 $URY=1.320000 $lvl=1
ReA4 A:18 A:19 0.078804 $metal1  $L=0.145 $W=0.230000 $SI_W=0.23 $TYPE=10 $DIR=0 $LLX=0.775000 $LLY=1.090000 $URX=0.920000 $URY=1.320000 $lvl=1
RfA5 A:12 A:13 12.423529 $li  $L=0.165 $W=0.170000 $SI_W=0.17 $TYPE=10 $DIR=0 $LLX=0.920000 $LLY=1.120000 $URX=1.085000 $URY=1.290000 $lvl=2
RfA6 A:13 A:14 1.129412 $li  $L=0.015 $W=1000000 $SI_W=1000000 $TYPE=1,10 $DIR=0 $LLX=0.905000 $LLY=1.120000 $URX=0.920000 $URY=1.290000 $lvl=2
RfA7 A:14 A:15 13.929413 $li  $L=0.185 $W=0.170000 $SI_W=0.17 $TYPE=10 $DIR=0 $LLX=0.720000 $LLY=1.120000 $URX=0.905000 $URY=1.290000 $lvl=2
RgA8 A:8 Mmp0:g 173.519989 $poly  $L=0.54 $W=0.150000 $SI_W=0.15 $TYPE=10 $DIR=1 $LLX=0.830000 $LLY=3.355000 $URX=0.980000 $URY=3.895000 $lvl=3
RgA9 Mmp0:g A:9 672.025757 $poly  $L=2.15 $W=0.150000 $SI_W=0.15 $TYPE=10 $DIR=1 $LLX=0.830000 $LLY=1.205000 $URX=0.980000 $URY=3.355000 $lvl=3
RgA10 A:9 A:10 34.134449 $poly  $L=0.1645 $W=0.270000 $SI_W=0.27 $TYPE=10 $DIR=1 $LLX=0.770000 $LLY=1.040500 $URX=1.040000 $URY=1.205000 $lvl=3
RgA11 A:10 Mmn0:g 114.921295 $poly  $L=0.3575 $W=0.150000 $SI_W=0.15 $TYPE=10 $DIR=1 $LLX=0.830000 $LLY=0.682500 $URX=0.980000 $URY=1.040000 $lvl=3
RgA12 Mmn0:g A:11 116.483322 $poly  $L=0.3625 $W=0.150000 $SI_W=0.15 $TYPE=10 $DIR=1 $LLX=0.830000 $LLY=0.320000 $URX=0.980000 $URY=0.682500 $lvl=3
RjA13 A:13 A:18 152.000000 $mcon  $L=0.17 $W=0.17 $A=0.0289 $VC=0 $SAVL=0 $SAVC=0 $SI_A=0.0289 $COVER_DIR=0 $LLX=0.000000 $LLY=0.000000 $URX=0.170000 $URY=0.170000 $lvl=6
RiA14 A:9 A:14 15.000000 $licon  $L=0.17 $W=0.17 $A=0.0289 $VC=0 $SAVL=0 $SAVC=0 $SI_A=0.0289 $COVER_DIR=0 $LLX=0.000000 $LLY=0.000000 $URX=0.170000 $URY=0.170000 $lvl=7
*
*|NET VSS! 2.29038e-15
*|P (VSS! X 0 2.4150 0.0050) // $llx=2.4150 $lly=0.0050 $urx=2.4150 $ury=0.0050 $lvl=1
*|I (Mmn4:b Mmn4 b X 0 1.3350 0.6825) // $llx=1.3350 $lly=0.6825 $urx=1.3350 $ury=0.6825 $lvl=8
*|I (Mmn5:s Mmn5 s X 0 2.6095 0.8500) // $llx=2.6095 $lly=0.8500 $urx=2.6095 $ury=0.8500 $lvl=4
*|I (Mmn5:b Mmn5 b X 0 2.6850 0.8500) // $llx=2.6850 $lly=0.8500 $urx=2.6850 $ury=0.8500 $lvl=8
*|I (Mmn5@1:s Mmn5@1 s X 0 3.1905 0.8500) // $llx=3.1905 $lly=0.8500 $urx=3.1905 $ury=0.8500 $lvl=4
*|I (Mmn5@1:b Mmn5@1 b X 0 3.1150 0.8500) // $llx=3.1150 $lly=0.8500 $urx=3.1150 $ury=0.8500 $lvl=8
*|I (Mmn2:s Mmn2 s X 0 2.2705 0.6825) // $llx=2.2705 $lly=0.6825 $urx=2.2705 $ury=0.6825 $lvl=4
*|I (Mmn2:b Mmn2 b X 0 2.1950 0.6825) // $llx=2.1950 $lly=0.6825 $urx=2.1950 $ury=0.6825 $lvl=8
*|I (Mmn1:s Mmn1 s X 0 0.5505 0.6825) // $llx=0.5505 $lly=0.6825 $urx=0.5505 $ury=0.6825 $lvl=4
*|I (Mmn1:b Mmn1 b X 0 0.4750 0.6825) // $llx=0.4750 $lly=0.6825 $urx=0.4750 $ury=0.6825 $lvl=8
*|I (Mmn0:s Mmn0 s X 0 0.8295 0.6825) // $llx=0.8295 $lly=0.6825 $urx=0.8295 $ury=0.6825 $lvl=4
*|I (Mmn0:b Mmn0 b X 0 0.9050 0.6825) // $llx=0.9050 $lly=0.6825 $urx=0.9050 $ury=0.6825 $lvl=8
*|I (Mmn3:b Mmn3 b X 0 1.7650 0.6825) // $llx=1.7650 $lly=0.6825 $urx=1.7650 $ury=0.6825 $lvl=8
*|S (VSS!:1 3.3300 1.2300) // $llx=3.3300 $lly=1.2300 $urx=3.3300 $ury=1.2300 $lvl=2
*|S (VSS!:3 3.3300 0.8500) // $llx=3.3300 $lly=0.8500 $urx=3.3300 $ury=0.8500 $lvl=2
*|S (VSS!:4 3.3300 0.0000) // $llx=3.3300 $lly=0.0000 $urx=3.3300 $ury=0.0000 $lvl=2
*|S (VSS!:5 2.4700 0.0000) // $llx=2.4700 $lly=0.0000 $urx=2.4700 $ury=0.0000 $lvl=2
*|S (VSS!:6 1.8400 0.0000) // $llx=1.8400 $lly=0.0000 $urx=1.8400 $ury=0.0000 $lvl=2
*|S (VSS!:7 1.8400 0.0000) // $llx=1.8400 $lly=0.0000 $urx=1.8400 $ury=0.0000 $lvl=4
*|S (VSS!:9 0.6900 0.0000) // $llx=0.6900 $lly=0.0000 $urx=0.6900 $ury=0.0000 $lvl=2
*|S (VSS!:10 0.0000 0.0000) // $llx=0.0000 $lly=0.0000 $urx=0.0000 $ury=0.0000 $lvl=2
*|S (VSS!:11 3.6795 0.0000) // $llx=3.6795 $lly=0.0000 $urx=3.6795 $ury=0.0000 $lvl=2
*|S (VSS!:13 2.4700 0.8500) // $llx=2.4700 $lly=0.8500 $urx=2.4700 $ury=0.8500 $lvl=2
*|S (VSS!:14 2.4700 1.2300) // $llx=2.4700 $lly=1.2300 $urx=2.4700 $ury=1.2300 $lvl=2
*|S (VSS!:16 0.6900 0.6800) // $llx=0.6900 $lly=0.6800 $urx=0.6900 $ury=0.6800 $lvl=2
*|S (VSS!:17 0.6900 0.8950) // $llx=0.6900 $lly=0.8950 $urx=0.6900 $ury=0.8950 $lvl=2
*|S (VSS!:18 3.6800 0.0000) // $llx=3.6800 $lly=0.0000 $urx=3.6800 $ury=0.0000 $lvl=1
*|S (VSS!:19 1.8400 0.0000) // $llx=1.8400 $lly=0.0000 $urx=1.8400 $ury=0.0000 $lvl=1
*|S (VSS!:20 0.0000 0.0000) // $llx=0.0000 $lly=0.0000 $urx=0.0000 $ury=0.0000 $lvl=1
ReE82 VSS!:18 VSS! 0.395312 $metal1  $L=1.265 $W=0.400000 $SI_W=0.4 $TYPE=10 $DIR=0 $LLX=2.415000 $LLY=-0.199500 $URX=3.680000 $URY=0.200000 $lvl=1
ReE83 VSS! VSS!:19 0.179688 $metal1  $L=0.575 $W=0.400000 $SI_W=0.4 $TYPE=10 $DIR=0 $LLX=1.840000 $LLY=-0.199500 $URX=2.415000 $URY=0.200000 $lvl=1
ReE84 VSS!:19 VSS!:20 0.575000 $metal1  $L=1.84 $W=0.400000 $SI_W=0.4 $TYPE=10 $DIR=0 $LLX=0.000000 $LLY=-0.199500 $URX=1.840000 $URY=0.200000 $lvl=1
RfE85 VSS!:1 VSS!:3 28.611765 $li  $L=0.38 $W=0.170000 $SI_W=0.17 $TYPE=10 $DIR=1 $LLX=3.245000 $LLY=0.850000 $URX=3.415000 $URY=1.230000 $lvl=2
RfE86 VSS!:3 VSS!:4 60.975437 $li  $L=0.84975 $W=0.170000 $SI_W=0.17 $TYPE=10 $DIR=1 $LLX=3.245000 $LLY=0.000000 $URX=3.415000 $URY=0.850000 $lvl=2
RfE87 VSS!:4 VSS!:5 44.031998 $li  $L=0.86 $W=0.250000 $SI_W=0.25 $TYPE=10 $DIR=0 $LLX=2.470000 $LLY=-0.124500 $URX=3.330000 $URY=0.125000 $lvl=2
RfE88 VSS!:5 VSS!:6 32.268803 $li  $L=0.63025 $W=0.250000 $SI_W=0.25 $TYPE=10 $DIR=0 $LLX=1.840000 $LLY=-0.124500 $URX=2.470000 $URY=0.125000 $lvl=2
RfE89 VSS!:6 VSS!:9 58.867199 $li  $L=1.14975 $W=0.250000 $SI_W=0.25 $TYPE=10 $DIR=0 $LLX=0.690000 $LLY=-0.124500 $URX=1.840000 $URY=0.125000 $lvl=2
RfE90 VSS!:9 VSS!:10 35.340801 $li  $L=0.69025 $W=0.250000 $SI_W=0.25 $TYPE=10 $DIR=0 $LLX=0.000000 $LLY=-0.124500 $URX=0.690000 $URY=0.125000 $lvl=2
RfE91 VSS!:4 VSS!:11 17.881599 $li  $L=0.34925 $W=0.250000 $SI_W=0.25 $TYPE=10 $DIR=0 $LLX=3.330000 $LLY=-0.124500 $URX=3.679000 $URY=0.125000 $lvl=2
RfE92 VSS!:5 VSS!:13 60.975437 $li  $L=0.84975 $W=0.170000 $SI_W=0.17 $TYPE=10 $DIR=1 $LLX=2.385000 $LLY=0.000000 $URX=2.555000 $URY=0.850000 $lvl=2
RfE93 VSS!:13 VSS!:14 28.611765 $li  $L=0.38 $W=0.170000 $SI_W=0.17 $TYPE=10 $DIR=1 $LLX=2.385000 $LLY=0.850000 $URX=2.555000 $URY=1.230000 $lvl=2
RfE94 VSS!:9 VSS!:16 48.175434 $li  $L=0.67975 $W=0.170000 $SI_W=0.17 $TYPE=10 $DIR=1 $LLX=0.605000 $LLY=0.000000 $URX=0.775000 $URY=0.680000 $lvl=2
RfE95 VSS!:16 VSS!:17 16.188236 $li  $L=0.215 $W=0.170000 $SI_W=0.17 $TYPE=10 $DIR=1 $LLX=0.605000 $LLY=0.680000 $URX=0.775000 $URY=0.895000 $lvl=2
RhE96 Mmn5@1:s VSS!:3 7.500000 $licon_diff  $A=0.0578 $VC=0 $SAVL=0 $SAVC=0 $SI_A=0.0578 $COVER_DIR=0 $LLX=0.000000 $LLY=0.000000 $URX=-0.057800 $URY=-2.000000 $lvl=5
RhE97 Mmn5:s VSS!:13 7.500000 $licon_diff  $A=0.0578 $VC=0 $SAVL=0 $SAVC=0 $SI_A=0.0578 $COVER_DIR=0 $LLX=0.000000 $LLY=0.000000 $URX=-0.057800 $URY=-2.000000 $lvl=5
RhE98 Mmn1:s VSS!:16 15.000000 $licon_diff  $L=0.17 $W=0.17 $A=0.0289 $VC=0 $SAVL=0 $SAVC=0 $SI_A=0.0289 $COVER_DIR=0 $LLX=0.000000 $LLY=0.000000 $URX=0.170000 $URY=0.170000 $lvl=5
Rh_3_E99 VSS!:7 VSS!:6 2.142857 $licon_diff  $A=0.2023 $VC=0 $SAVL=0 $SAVC=0 $SI_A=0.2023 $COVER_DIR=0 $LLX=0.000000 $LLY=0.000000 $URX=-0.202300 $URY=-7.000000 $lvl=5
RjE100 VSS!:6 VSS!:19 21.714285 $mcon  $A=0.2023 $VC=0 $SAVL=0 $SAVC=0 $SI_A=0.2023 $COVER_DIR=0 $LLX=0.000000 $LLY=0.000000 $URX=-0.202300 $URY=-7.000000 $lvl=6
RmwE101 Mmn4:b VSS! 0.001000 $FOX $W=1000000 $SI_W=1000000 $TYPE=1 $DIR=0
RmwE102 Mmn5:b VSS! 0.001000 $FOX $W=1000000 $SI_W=1000000 $TYPE=1 $DIR=0
RmwE103 Mmn5@1:b VSS! 0.001000 $FOX $W=1000000 $SI_W=1000000 $TYPE=1 $DIR=0
RmwE104 Mmn2:s Mmn5:s 0.001000 $diff $W=1000000 $SI_W=1000000 $TYPE=1 $DIR=0
RmwE105 Mmn2:b VSS! 0.001000 $FOX $W=1000000 $SI_W=1000000 $TYPE=1 $DIR=0
RmwE106 Mmn1:b VSS! 0.001000 $FOX $W=1000000 $SI_W=1000000 $TYPE=1 $DIR=0
RmwE107 Mmn0:s Mmn1:s 0.001000 $diff $W=1000000 $SI_W=1000000 $TYPE=1 $DIR=0
RmwE108 Mmn0:b VSS! 0.001000 $FOX $W=1000000 $SI_W=1000000 $TYPE=1 $DIR=0
RmwE109 Mmn3:b VSS! 0.001000 $FOX $W=1000000 $SI_W=1000000 $TYPE=1 $DIR=0
*
*|NET n2 2.22889e-15
*|I (Mmp4:g Mmp4 g X 0 1.3350 3.3550) // $llx=1.3350 $lly=3.3550 $urx=1.3350 $ury=3.3550 $lvl=3
*|I (Mmp1:d Mmp1 d X 0 0.3995 3.3550) // $llx=0.3995 $lly=3.3550 $urx=0.3995 $ury=3.3550 $lvl=4
*|I (Mmn1:d Mmn1 d X 0 0.3995 0.6825) // $llx=0.3995 $lly=0.6825 $urx=0.3995 $ury=0.6825 $lvl=4
*|I (Mmn3:g Mmn3 g X 0 1.7650 0.6825) // $llx=1.7650 $lly=0.6825 $urx=1.7650 $ury=0.6825 $lvl=3
*|S (n2 1.7650 0.6825) // $llx=1.7650 $lly=0.6825 $urx=1.7650 $ury=0.6825 $lvl=3
*|S (n2:8 1.3350 3.8950) // $llx=1.3350 $lly=3.8950 $urx=1.3350 $ury=3.8950 $lvl=3
*|S (n2:9 1.3450 2.6945) // $llx=1.3450 $lly=2.6945 $urx=1.3450 $ury=2.6945 $lvl=3
*|S (n2:10 1.3450 2.5300) // $llx=1.3450 $lly=2.5300 $urx=1.3450 $ury=2.5300 $lvl=3
*|S (n2:11 1.7650 0.3200) // $llx=1.7650 $lly=0.3200 $urx=1.7650 $ury=0.3200 $lvl=3
*|S (n2:12 1.7550 1.0850) // $llx=1.7550 $lly=1.0850 $urx=1.7550 $ury=1.0850 $lvl=3
*|S (n2:13 1.7550 1.2500) // $llx=1.7550 $lly=1.2500 $urx=1.7550 $ury=1.2500 $lvl=3
*|S (n2:14 0.2600 0.8950) // $llx=0.2600 $lly=0.8950 $urx=0.2600 $ury=0.8950 $lvl=2
*|S (n2:16 0.2600 0.6800) // $llx=0.2600 $lly=0.6800 $urx=0.2600 $ury=0.6800 $lvl=2
*|S (n2:17 0.2600 0.4900) // $llx=0.2600 $lly=0.4900 $urx=0.2600 $ury=0.4900 $lvl=2
*|S (n2:18 2.2150 1.2500) // $llx=2.2150 $lly=1.2500 $urx=2.2150 $ury=1.2500 $lvl=2
*|S (n2:19 2.0500 1.2500) // $llx=2.0500 $lly=1.2500 $urx=2.0500 $ury=1.2500 $lvl=2
*|S (n2:20 1.7550 1.2500) // $llx=1.7550 $lly=1.2500 $urx=1.7550 $ury=1.2500 $lvl=2
*|S (n2:21 1.5900 1.2500) // $llx=1.5900 $lly=1.2500 $urx=1.5900 $ury=1.2500 $lvl=2
*|S (n2:22 2.2150 2.5300) // $llx=2.2150 $lly=2.5300 $urx=2.2150 $ury=2.5300 $lvl=2
*|S (n2:23 2.0500 2.5300) // $llx=2.0500 $lly=2.5300 $urx=2.0500 $ury=2.5300 $lvl=2
*|S (n2:24 1.3450 2.5300) // $llx=1.3450 $lly=2.5300 $urx=1.3450 $ury=2.5300 $lvl=2
*|S (n2:25 0.3400 2.5300) // $llx=0.3400 $lly=2.5300 $urx=0.3400 $ury=2.5300 $lvl=2
*|S (n2:27 0.2600 3.3550) // $llx=0.2600 $lly=3.3550 $urx=0.2600 $ury=3.3550 $lvl=2
*|S (n2:28 0.2600 3.7450) // $llx=0.2600 $lly=3.7450 $urx=0.2600 $ury=3.7450 $lvl=2
*|S (n2:29 0.3150 2.6750) // $llx=0.3150 $lly=2.6750 $urx=0.3150 $ury=2.6750 $lvl=1
*|S (n2:30 0.3400 2.5300) // $llx=0.3400 $lly=2.5300 $urx=0.3400 $ury=2.5300 $lvl=1
*|S (n2:31 0.3150 2.3850) // $llx=0.3150 $lly=2.3850 $urx=0.3150 $ury=2.3850 $lvl=1
*|S (n2:32 0.2600 0.6345) // $llx=0.2600 $lly=0.6345 $urx=0.2600 $ury=0.6345 $lvl=1
*|S (n2:33 0.2600 0.4900) // $llx=0.2600 $lly=0.4900 $urx=0.2600 $ury=0.4900 $lvl=1
*|S (n2:34 2.0500 2.6750) // $llx=2.0500 $lly=2.6750 $urx=2.0500 $ury=2.6750 $lvl=1
*|S (n2:35 2.0500 2.5300) // $llx=2.0500 $lly=2.5300 $urx=2.0500 $ury=2.5300 $lvl=1
*|S (n2:36 2.0500 2.3850) // $llx=2.0500 $lly=2.3850 $urx=2.0500 $ury=2.3850 $lvl=1
*|S (n2:37 2.0500 1.3945) // $llx=2.0500 $lly=1.3945 $urx=2.0500 $ury=1.3945 $lvl=1
*|S (n2:38 2.0500 1.2500) // $llx=2.0500 $lly=1.2500 $urx=2.0500 $ury=1.2500 $lvl=1
*|S (n2:39 2.0500 1.1050) // $llx=2.0500 $lly=1.1050 $urx=2.0500 $ury=1.1050 $lvl=1
CH1 Mmn1:d VSS! 1.26546e-18 $lvl=4
CH2 Mmp1:d VSS! 8.4271e-19 $lvl=4
CH3 Mmp4:g VSS! 1.73813e-18 $lvl=3
CH4 n2:11 VSS! 1.52328e-18 $lvl=3
CH5 n2:24 VSS! 3.42463e-18 $lvl=2
CH6 n2:22 VSS! 3.35736e-18 $lvl=2
CH7 n2:28 VSS! 3.98605e-18 $lvl=2
CH8 n2:18 VSS! 3.58434e-18 $lvl=2
CH9 n2:21 VSS! 2.85122e-18 $lvl=2
CH10 n2:14 VSS! 1.10113e-17 $lvl=2
CH11 n2:38 VSS! 4.38452e-18 $lvl=1
CH12 n2:36 VSS! 4.98637e-18 $lvl=1
CH13 n2:34 VSS! 3.50161e-18 $lvl=1
CH14 n2:39 VSS! 3.44072e-18 $lvl=1
CH15 n2:33 VSS! 6.51602e-18 $lvl=1
CH16 n2:31 VSS! 8.2104e-18 $lvl=1
CH17 n2:29 VSS! 5.49009e-18 $lvl=1
CH18 n2:17 VSS! 2.73629e-18 $lvl=2
CH19 n2:25 VSS! 5.60205e-18 $lvl=2
CH20 n2:19 VSS! 2.05349e-18 $lvl=2
CH21 n2:23 VSS! 2.42776e-18 $lvl=2
CH22 n2:10 VSS! 5.4538e-18 $lvl=3
CH23 n2:13 VSS! 1.72804e-17 $lvl=3
CH24 n2:24 net112:4 1.39987e-18 $lvl1=2 $lvl2=2
CH25 n2:24 net112:3 1.26865e-18 $lvl1=2 $lvl2=2
CH26 n2:10 net112:3 1.02964e-18 $lvl1=3 $lvl2=2
CH27 n2:34 net112:4 9.32156e-19 $lvl1=1 $lvl2=2
CH28 n2:34 net112:3 8.5089e-19 $lvl1=1 $lvl2=2
CH29 n2:10 net112:4 6.06743e-19 $lvl1=3 $lvl2=2
CH30 n2:13 Mmn2:d 9.34231e-19 $lvl1=3 $lvl2=4
CH31 n2:39 net145:3 7.13308e-19 $lvl1=1 $lvl2=2
CH32 n2:39 net145 6.32061e-19 $lvl1=1 $lvl2=2
CH33 n2:11 net145:4 5.39875e-19 $lvl1=3 $lvl2=2
CH34 n2:23 net112:4 5.15184e-18 $lvl1=2 $lvl2=2
CH35 n2:19 net145 2.98183e-18 $lvl1=2 $lvl2=2
CH36 n2:23 net112:3 1.50358e-18 $lvl1=2 $lvl2=2
CH37 n2:19 net145:3 1.54657e-18 $lvl1=2 $lvl2=2
CH38 n2:22 net112:4 1.29562e-17 $lvl1=2 $lvl2=2
CH39 n2:21 net145:3 1.39569e-18 $lvl1=2 $lvl2=2
CH40 n2:18 net145 3.89843e-18 $lvl1=2 $lvl2=2
CH41 n2:22 net112:3 4.08171e-18 $lvl1=2 $lvl2=2
CH42 n2:21 net145 2.39324e-18 $lvl1=2 $lvl2=2
CH43 n2:18 net145:3 2.16626e-18 $lvl1=2 $lvl2=2
CH44 n2:13 net145 2.18559e-18 $lvl1=3 $lvl2=2
CH45 n2:11 net145:3 6.46108e-17 $lvl1=3 $lvl2=2
CH46 n2:13 net145:3 3.37058e-18 $lvl1=3 $lvl2=2
CH47 n2:17 VSS!:10 9.50073e-18 $lvl1=2 $lvl2=2
CH48 n2:33 VSS!:16 6.79273e-18 $lvl1=1 $lvl2=2
CH49 n2:11 VSS!:9 6.75133e-18 $lvl1=3 $lvl2=2
CH50 n2:17 VSS!:20 5.4004e-18 $lvl1=2 $lvl2=1
CH51 n2:19 VSS!:13 4.33055e-18 $lvl1=2 $lvl2=2
CH52 n2:14 VSS!:9 3.91865e-18 $lvl1=2 $lvl2=2
CH53 n2:17 VSS!:6 3.47223e-18 $lvl1=2 $lvl2=2
CH54 n2:17 VSS!:19 3.3437e-18 $lvl1=2 $lvl2=1
CH55 n2:13 VSS!:13 3.05873e-18 $lvl1=3 $lvl2=2
CH56 n2:14 VSS!:10 2.65289e-18 $lvl1=2 $lvl2=2
CH57 n2:14 VSS!:20 1.87881e-18 $lvl1=2 $lvl2=1
CH58 n2:14 VSS!:7 1.85411e-18 $lvl1=2 $lvl2=4
CH59 n2:33 VSS!:10 1.78863e-18 $lvl1=1 $lvl2=2
CH60 n2:38 VSS!:19 1.48338e-18 $lvl1=1 $lvl2=1
CH61 n2:31 VSS!:19 1.46183e-18 $lvl1=1 $lvl2=1
CH62 n2:33 VSS!:6 1.39931e-18 $lvl1=1 $lvl2=2
CH63 n2:33 VSS!:9 1.39354e-18 $lvl1=1 $lvl2=2
CH64 Mmn1:d VSS!:9 1.39076e-18 $lvl1=4 $lvl2=2
CH65 n2:11 VSS!:13 1.04803e-18 $lvl1=3 $lvl2=2
CH66 n2:31 VSS!:20 1.0185e-18 $lvl1=1 $lvl2=1
CH67 n2:13 Mmn5:s 8.38393e-19 $lvl1=3 $lvl2=4
CH68 n2:17 VSS!:7 7.65631e-19 $lvl1=2 $lvl2=4
CH69 n2:14 VSS!:19 7.22513e-19 $lvl1=2 $lvl2=1
CH70 n2:39 VSS!:13 6.74001e-19 $lvl1=1 $lvl2=2
CH71 Mmn1:d VSS!:10 6.72546e-19 $lvl1=4 $lvl2=2
CH72 n2:38 VSS!:13 6.68861e-19 $lvl1=1 $lvl2=2
CH73 n2:33 VSS!:19 3.35758e-17 $lvl1=1 $lvl2=1
CH74 n2:17 VSS!:9 1.2136e-17 $lvl1=2 $lvl2=2
CH75 n2:17 VSS!:16 1.22276e-17 $lvl1=2 $lvl2=2
CH76 n2:18 VSS!:13 1.75831e-17 $lvl1=2 $lvl2=2
CH77 n2:33 VSS!:20 3.2843e-17 $lvl1=1 $lvl2=1
CH78 n2:14 VSS!:16 2.44931e-17 $lvl1=2 $lvl2=2
ReH180 n2:29 n2:30 0.064732 $metal1  $L=0.145 $W=0.280000 $SI_W=0.28 $TYPE=10 $DIR=1 $LLX=0.175000 $LLY=2.530000 $URX=0.455000 $URY=2.675000 $lvl=1
ReH181 n2:30 n2:31 0.064621 $metal1  $L=0.1445 $W=0.280000 $SI_W=0.28 $TYPE=10 $DIR=1 $LLX=0.175000 $LLY=2.385500 $URX=0.455000 $URY=2.530000 $lvl=1
ReH182 n2:31 n2:32 1.287012 $metal1  $L=1.75 $W=0.170000 $SI_W=0.17 $TYPE=10 $DIR=1 $LLX=0.175000 $LLY=0.635000 $URX=0.345000 $URY=2.385000 $lvl=1
ReH183 n2:32 n2:33 0.083049 $metal1  $L=0.1445 $W=0.230000 $SI_W=0.23 $TYPE=10 $DIR=1 $LLX=0.145000 $LLY=0.490000 $URX=0.375000 $URY=0.634500 $lvl=1
ReH184 n2:34 n2:35 0.078804 $metal1  $L=0.145 $W=0.230000 $SI_W=0.23 $TYPE=10 $DIR=1 $LLX=1.935000 $LLY=2.530000 $URX=2.165000 $URY=2.675000 $lvl=1
ReH185 n2:35 n2:36 0.078668 $metal1  $L=0.1445 $W=0.230000 $SI_W=0.23 $TYPE=10 $DIR=1 $LLX=1.935000 $LLY=2.385500 $URX=2.165000 $URY=2.530000 $lvl=1
ReH186 n2:36 n2:37 0.884200 $metal1  $L=0.99 $W=0.140000 $SI_W=0.14 $TYPE=10 $DIR=1 $LLX=2.025000 $LLY=1.395000 $URX=2.165000 $URY=2.385000 $lvl=1
ReH187 n2:37 n2:38 0.097672 $metal1  $L=0.1445 $W=0.230000 $SI_W=0.23 $TYPE=10 $DIR=1 $LLX=1.935000 $LLY=1.250000 $URX=2.165000 $URY=1.394500 $lvl=1
ReH188 n2:38 n2:39 0.078804 $metal1  $L=0.145 $W=0.230000 $SI_W=0.23 $TYPE=10 $DIR=1 $LLX=1.935000 $LLY=1.105000 $URX=2.165000 $URY=1.250000 $lvl=1
RfH189 n2:14 n2:16 16.188236 $li  $L=0.215 $W=0.170000 $SI_W=0.17 $TYPE=10 $DIR=1 $LLX=0.175000 $LLY=0.680000 $URX=0.345000 $URY=0.895000 $lvl=2
RfH190 n2:16 n2:17 14.305882 $li  $L=0.19 $W=0.170000 $SI_W=0.17 $TYPE=10 $DIR=1 $LLX=0.175000 $LLY=0.490000 $URX=0.345000 $URY=0.680000 $lvl=2
RfH191 n2:18 n2:19 12.423529 $li  $L=0.165 $W=0.170000 $SI_W=0.17 $TYPE=10 $DIR=0 $LLX=2.050000 $LLY=1.165000 $URX=2.215000 $URY=1.335000 $lvl=2
RfH192 n2:19 n2:20 22.211765 $li  $L=0.295 $W=0.170000 $SI_W=0.17 $TYPE=10 $DIR=0 $LLX=1.755000 $LLY=1.165000 $URX=2.050000 $URY=1.335000 $lvl=2
RfH193 n2:20 n2:21 12.423529 $li  $L=0.165 $W=0.170000 $SI_W=0.17 $TYPE=10 $DIR=0 $LLX=1.590000 $LLY=1.165000 $URX=1.755000 $URY=1.335000 $lvl=2
RfH194 n2:22 n2:23 12.423529 $li  $L=0.165 $W=0.170000 $SI_W=0.17 $TYPE=10 $DIR=0 $LLX=2.050000 $LLY=2.445000 $URX=2.215000 $URY=2.615000 $lvl=2
RfH195 n2:23 n2:24 53.082352 $li  $L=0.705 $W=0.170000 $SI_W=0.17 $TYPE=10 $DIR=0 $LLX=1.345000 $LLY=2.445000 $URX=2.050000 $URY=2.615000 $lvl=2
RfH196 n2:24 n2:25 75.670593 $li  $L=1.005 $W=0.170000 $SI_W=0.17 $TYPE=10 $DIR=0 $LLX=0.340000 $LLY=2.445000 $URX=1.345000 $URY=2.615000 $lvl=2
RfH197 n2:25 n2:27 62.117649 $li  $L=0.825 $W=0.170000 $SI_W=0.17 $TYPE=10 $DIR=1 $LLX=0.175000 $LLY=2.530000 $URX=0.345000 $URY=3.355000 $lvl=2
RfH198 n2:27 n2:28 29.364706 $li  $L=0.39 $W=0.170000 $SI_W=0.17 $TYPE=10 $DIR=1 $LLX=0.175000 $LLY=3.355000 $URX=0.345000 $URY=3.745000 $lvl=2
RgH199 n2:8 Mmp4:g 173.519989 $poly  $L=0.54 $W=0.150000 $SI_W=0.15 $TYPE=10 $DIR=1 $LLX=1.260000 $LLY=3.355000 $URX=1.410000 $URY=3.895000 $lvl=3
RgH200 Mmp4:g n2:9 212.124619 $poly  $L=0.66 $W=0.150000 $SI_W=0.15 $TYPE=10 $DIR=1 $LLX=1.260000 $LLY=2.694500 $URX=1.410000 $URY=3.354500 $lvl=3
RgH201 n2:9 n2:10 34.134449 $poly  $L=0.1645 $W=0.270000 $SI_W=0.27 $TYPE=10 $DIR=1 $LLX=1.210000 $LLY=2.530000 $URX=1.480000 $URY=2.694500 $lvl=3
RgH202 n2:11 n2 116.483322 $poly  $L=0.3625 $W=0.150000 $SI_W=0.15 $TYPE=10 $DIR=1 $LLX=1.690000 $LLY=0.320000 $URX=1.840000 $URY=0.682500 $lvl=3
RgH203 n2 n2:12 129.381287 $poly  $L=0.4025 $W=0.150000 $SI_W=0.15 $TYPE=10 $DIR=1 $LLX=1.690000 $LLY=0.682500 $URX=1.840000 $URY=1.085000 $lvl=3
RgH204 n2:12 n2:13 34.134449 $poly  $L=0.1645 $W=0.270000 $SI_W=0.27 $TYPE=10 $DIR=1 $LLX=1.620000 $LLY=1.085500 $URX=1.890000 $URY=1.250000 $lvl=3
RhH205 Mmn1:d n2:16 15.000000 $licon_diff  $L=0.17 $W=0.17 $A=0.0289 $VC=0 $SAVL=0 $SAVC=0 $SI_A=0.0289 $COVER_DIR=0 $LLX=0.000000 $LLY=0.000000 $URX=0.170000 $URY=0.170000 $lvl=5
Rh_2_H206 Mmp1:d n2:27 7.500000 $licon_diff  $A=0.0578 $VC=0 $SAVL=0 $SAVC=0 $SI_A=0.0578 $COVER_DIR=0 $LLX=0.000000 $LLY=0.000000 $URX=-0.057800 $URY=-2.000000 $lvl=5
RjH207 n2:25 n2:30 152.000000 $mcon  $L=0.17 $W=0.17 $A=0.0289 $VC=0 $SAVL=0 $SAVC=0 $SI_A=0.0289 $COVER_DIR=0 $LLX=0.000000 $LLY=0.000000 $URX=0.170000 $URY=0.170000 $lvl=6
RjH208 n2:17 n2:33 152.000000 $mcon  $L=0.17 $W=0.17 $A=0.0289 $VC=0 $SAVL=0 $SAVC=0 $SI_A=0.0289 $COVER_DIR=0 $LLX=0.000000 $LLY=0.000000 $URX=0.170000 $URY=0.170000 $lvl=6
RjH209 n2:23 n2:35 152.000000 $mcon  $L=0.17 $W=0.17 $A=0.0289 $VC=0 $SAVL=0 $SAVC=0 $SI_A=0.0289 $COVER_DIR=0 $LLX=0.000000 $LLY=0.000000 $URX=0.170000 $URY=0.170000 $lvl=6
RjH210 n2:19 n2:38 152.000000 $mcon  $L=0.17 $W=0.17 $A=0.0289 $VC=0 $SAVL=0 $SAVC=0 $SI_A=0.0289 $COVER_DIR=0 $LLX=0.000000 $LLY=0.000000 $URX=0.170000 $URY=0.170000 $lvl=6
RiH211 n2:13 n2:20 15.000000 $licon  $L=0.17 $W=0.17 $A=0.0289 $VC=0 $SAVL=0 $SAVC=0 $SI_A=0.0289 $COVER_DIR=0 $LLX=0.000000 $LLY=0.000000 $URX=0.170000 $URY=0.170000 $lvl=7
RiH212 n2:10 n2:24 15.000000 $licon  $L=0.17 $W=0.17 $A=0.0289 $VC=0 $SAVL=0 $SAVC=0 $SI_A=0.0289 $COVER_DIR=0 $LLX=0.000000 $LLY=0.000000 $URX=0.170000 $URY=0.170000 $lvl=7
RmwH213 Mmn3:g n2 0.001000 $poly $W=1000000 $SI_W=1000000 $TYPE=1 $DIR=0
*
*|NET B 1.30108e-15
*|P (B X 0 0.9350 1.7750) // $llx=0.9350 $lly=1.7750 $urx=0.9350 $ury=1.7750 $lvl=1
*|I (Mmp1:g Mmp1 g X 0 0.4750 3.3550) // $llx=0.4750 $lly=3.3550 $urx=0.4750 $ury=3.3550 $lvl=3