*
*|DSPF 1.5
*
*|DATE "Wed Jan  8 18:25:56 2025"
*|VENDOR "Cadence Design Systems"
*|PROGRAM "Cadence Quantus Extraction"
*|VERSION "22.1.0-p089 Linux 64 bit - (Thu Jan 19 11:47:08 PST 2023)"
*|DESIGN XNOR2X4_HS
*|DIVIDER /
*|DELIMITER :
*|DeviceFingerDelim "@"
*|BUSBIT []
*|GLOBAL_TEMPERATURE 25
*|OPERATING_TEMPERATURE 25

** *VIA_COVERAGE_CODES
** *index FF FS FP FU SF SS SP SU PF PS PP PU UF US UP UU X_by_Y
** * "FF" stands for Full landing and Full coverage
** *0 0 0 0 0 0 0 0 0 0 0 0 0 0 0 0 0
** *1 0 0 0 0 0 0 0 0 0 0 0 0 0 0 0 1 1x1
** *2 0 0 0 0 0 0 0 0 0 0 0 0 0 0 1 0 1x1
** *3 0 0 0 0 0 0 0 0 0 0 0 0 0 1 0 0 1x1
** *4 0 0 0 0 0 0 0 0 0 0 0 0 1 0 0 0 1x1
** *5 0 0 0 0 0 0 0 0 0 0 0 1 0 0 0 0 1x1
** *6 0 0 0 0 0 0 0 0 0 0 1 0 0 0 0 0 1x1
** *7 0 0 0 0 0 0 0 0 0 1 0 0 0 0 0 0 1x1
** *8 0 0 0 0 0 0 0 0 1 0 0 0 0 0 0 0 1x1
** *9 0 0 0 0 0 0 0 1 0 0 0 0 0 0 0 0 1x1
** *10 0 0 0 0 0 0 1 0 0 0 0 0 0 0 0 0 1x1
** *11 0 0 0 0 0 1 0 0 0 0 0 0 0 0 0 0 1x1
** *12 0 0 0 0 1 0 0 0 0 0 0 0 0 0 0 0 1x1
** *13 0 0 0 1 0 0 0 0 0 0 0 0 0 0 0 0 1x1
** *14 0 0 1 0 0 0 0 0 0 0 0 0 0 0 0 0 1x1
** *15 0 1 0 0 0 0 0 0 0 0 0 0 0 0 0 0 1x1
** *16 1 0 0 0 0 0 0 0 0 0 0 0 0 0 0 0 1x1

** *RESISTOR_TYPES
** *1 SHORTING_ELEMENT
** *2 PRES_NG
** *3 PRES_PG
** *4 PRES_NF
** *5 PRES_PF
** *6 TCN_NDIFF
** *7 TCN_PDIFF
** *8 TCN_NFIELD
** *9 TCN_PFIELD
** *10 QUALITY_EXTRACTED
** *11 GCNLAND
** *12 TCNLAND
** *13 DUMMY
** *14 RSD
** *15 BRIDGE

** *RESISTOR_CURRENT_DIRECTION
** *0 HORIZONTAL
** *1 VERTICAL
** *2 45 DEGREE

** QRC_TECH_DIR /vols/wfo_devel/projects/reference_SKY130/tech/sky130_release_0.0.4/quantus/extraction/typical 
** HIERARCHICAL_SPLIT_PINS_DELIMITER '%'
** caps2d version: 10
*
.SUBCKT  XNOR2X4_HS A B Y
*
*Net Section
*
*|GROUND_NET VSS!
*
*LAYER_MAP
*0 none
*1 metal1
*2 li
*3 poly
*4 diff
*5 licon_diff
*6 mcon
*7 licon
*8 FOX

*|NET A 8.48472e-16
*|P (A X 0 0.4750 2.5600) // $llx=0.4750 $lly=2.5600 $urx=0.4750 $ury=2.5600 $lvl=1
*|I (Mmp0:g Mmp0 g X 0 0.4750 3.2750) // $llx=0.4750 $lly=3.2750 $urx=0.4750 $ury=3.2750 $lvl=3
*|I (Mmn0:g Mmn0 g X 0 0.4750 0.6825) // $llx=0.4750 $lly=0.6825 $urx=0.4750 $ury=0.6825 $lvl=3
*|S (A:8 0.4750 3.8150) // $llx=0.4750 $lly=3.8150 $urx=0.4750 $ury=3.8150 $lvl=3
*|S (A:9 0.4650 2.0600) // $llx=0.4650 $lly=2.0600 $urx=0.4650 $ury=2.0600 $lvl=3
*|S (A:10 0.4650 1.8950) // $llx=0.4650 $lly=1.8950 $urx=0.4650 $ury=1.8950 $lvl=3
*|S (A:11 0.4750 0.3200) // $llx=0.4750 $lly=0.3200 $urx=0.4750 $ury=0.3200 $lvl=3
*|S (A:12 0.4650 2.0600) // $llx=0.4650 $lly=2.0600 $urx=0.4650 $ury=2.0600 $lvl=2
*|S (A:14 0.4600 3.2050) // $llx=0.4600 $lly=3.2050 $urx=0.4600 $ury=3.2050 $lvl=1
*|S (A:15 0.4650 2.0600) // $llx=0.4650 $lly=2.0600 $urx=0.4650 $ury=2.0600 $lvl=1
*|S (A:16 0.4650 1.9450) // $llx=0.4650 $lly=1.9450 $urx=0.4650 $ury=1.9450 $lvl=1
*|S (A:17 0.4600 1.8550) // $llx=0.4600 $lly=1.8550 $urx=0.4600 $ury=1.8550 $lvl=1
CA1 Mmn0:g VSS! 1.91599e-18 $lvl=3
CA2 A:8 VSS! 1.09099e-18 $lvl=3
CA3 A:15 VSS! 5.45981e-18 $lvl=1
CA4 A:14 VSS! 1.03952e-17 $lvl=1
CA5 A:17 VSS! 5.06211e-18 $lvl=1
CA6 A:12 VSS! 5.09964e-18 $lvl=2
CA7 A:9 VSS! 1.74287e-17 $lvl=3
CA8 A:12 n1:23 4.14169e-18 $lvl1=2 $lvl2=2
CA9 A:9 n1:23 3.26565e-18 $lvl1=3 $lvl2=2
CA10 A:15 n1:24 2.68867e-18 $lvl1=1 $lvl2=2
CA11 A:8 n1:31 2.19688e-18 $lvl1=3 $lvl2=2
CA12 A:15 n1:30 2.02335e-18 $lvl1=1 $lvl2=2
CA13 A:8 n1:30 1.4391e-18 $lvl1=3 $lvl2=2
CA14 A:17 n1:23 1.36624e-18 $lvl1=1 $lvl2=2
CA15 A:15 n1:22 1.31658e-18 $lvl1=1 $lvl2=2
CA16 A:9 n1:34 1.16889e-18 $lvl1=3 $lvl2=2
CA17 Mmn0:g n1:24 9.79089e-19 $lvl1=3 $lvl2=2
CA18 A:14 n1:24 9.18155e-19 $lvl1=1 $lvl2=2
CA19 A:15 n1:34 8.81765e-19 $lvl1=1 $lvl2=2
CA20 A:12 n1:34 7.39085e-19 $lvl1=2 $lvl2=2
CA21 A:17 n1:22 6.8053e-19 $lvl1=1 $lvl2=2
CA22 A:15 n1:26 6.60654e-19 $lvl1=1 $lvl2=2
CA23 Mmn0:g n1:35 6.46904e-19 $lvl1=3 $lvl2=2
CA24 A:14 n1:26 6.03128e-19 $lvl1=1 $lvl2=2
CA25 A:17 n1:26 6.00665e-19 $lvl1=1 $lvl2=2
CA26 A:14 n1:22 5.28973e-19 $lvl1=1 $lvl2=2
CA27 A:12 n1:26 4.85826e-19 $lvl1=2 $lvl2=2
CA28 A:9 n1:26 4.79101e-19 $lvl1=3 $lvl2=2
CA29 A:14 n1:39 4.11852e-19 $lvl1=1 $lvl2=1
CA30 A:9 Mmp0:d 3.97152e-19 $lvl1=3 $lvl2=4
CA31 A:9 n1:21 3.90847e-19 $lvl1=3 $lvl2=2
CA32 A:15 n1:39 3.33854e-19 $lvl1=1 $lvl2=1
CA33 A:15 n1:23 3.10088e-19 $lvl1=1 $lvl2=2
CA34 A:14 n1:34 2.21827e-17 $lvl1=1 $lvl2=2
CA35 A:14 n1:31 1.72972e-17 $lvl1=1 $lvl2=2
CA36 A:9 n1:24 7.45065e-18 $lvl1=3 $lvl2=2
CA37 A:9 n1:22 5.91557e-18 $lvl1=3 $lvl2=2
CA38 A:12 n1:31 1.06192e-17 $lvl1=2 $lvl2=2
CA39 A:9 n1:31 7.31443e-18 $lvl1=3 $lvl2=2
CA40 Mmn0:g n1:26 6.91293e-17 $lvl1=3 $lvl2=2
CA41 A:8 n1:34 1.30054e-16 $lvl1=3 $lvl2=2
CA42 A:15 n1:31 4.84107e-18 $lvl1=1 $lvl2=2
CA43 A:17 n1:24 4.85307e-18 $lvl1=1 $lvl2=2
CA44 A:12 n1:30 6.68385e-18 $lvl1=2 $lvl2=2
CA45 A:12 n1:24 1.14037e-17 $lvl1=2 $lvl2=2
CA46 A:9 n1:30 4.79989e-18 $lvl1=3 $lvl2=2
CA47 A:14 n1:30 7.60217e-18 $lvl1=1 $lvl2=2
CA48 A:12 n1:22 2.08141e-17 $lvl1=2 $lvl2=2
CA49 A:14 n2:13 2.48416e-18 $lvl1=1 $lvl2=2
CA50 A:15 n2:27 2.2902e-18 $lvl1=1 $lvl2=1
CA51 A:14 n2:16 2.27475e-18 $lvl1=1 $lvl2=2
CA52 A:15 n2:25 1.1662e-18 $lvl1=1 $lvl2=1
CA53 A:15 n2:29 8.09125e-19 $lvl1=1 $lvl2=1
CA54 A:14 n2:29 6.54817e-19 $lvl1=1 $lvl2=1
CA55 A:8 n2:13 5.93374e-19 $lvl1=3 $lvl2=2
CA56 A:9 n2:24 4.07743e-19 $lvl1=3 $lvl2=2
CA57 A:9 n2:13 3.67782e-19 $lvl1=3 $lvl2=2
CA58 A:12 n2:27 3.48587e-19 $lvl1=2 $lvl2=1
CA59 A:14 n2:25 2.2874e-17 $lvl1=1 $lvl2=1
CA60 A:14 n2:27 9.02045e-18 $lvl1=1 $lvl2=1
CA61 A:15 VSS!:23 1.3962e-18 $lvl1=1 $lvl2=1
CA62 A:14 VSS!:23 1.33761e-18 $lvl1=1 $lvl2=1
CA63 A:15 VSS!:24 7.43978e-19 $lvl1=1 $lvl2=1
CA64 A:17 VSS!:23 7.12843e-19 $lvl1=1 $lvl2=1
CA65 Mmn0:g VSS!:11 6.87198e-19 $lvl1=3 $lvl2=2
CA66 Mmn0:g VSS!:21 6.74779e-17 $lvl1=3 $lvl2=2
CA67 Mmn0:g VSS!:10 6.57611e-18 $lvl1=3 $lvl2=2
CA68 A:17 VDD! 4.0905e-18 $lvl1=1 $lvl2=1
CA69 A:14 VDD!:4 1.2332e-18 $lvl1=1 $lvl2=2
CA70 A:15 VDD!:23 1.06973e-18 $lvl1=1 $lvl2=1
CA71 A:14 VDD!:5 9.49163e-19 $lvl1=1 $lvl2=2
CA72 A:15 VDD!:24 7.43635e-19 $lvl1=1 $lvl2=1
CA73 A:8 VDD!:5 7.28934e-19 $lvl1=3 $lvl2=2
CA74 A:14 VDD!:6 7.00783e-19 $lvl1=1 $lvl2=2
CA75 A:9 VDD! 1.52428e-17 $lvl1=3 $lvl2=1
CA76 A:15 VDD! 1.2461e-17 $lvl1=1 $lvl2=1
CA77 A:14 VDD! 2.47579e-17 $lvl1=1 $lvl2=1
CA78 A:8 VDD!:1 1.27419e-16 $lvl1=3 $lvl2=2
CA79 A:14 VDD!:1 1.59946e-17 $lvl1=1 $lvl2=2
CA80 A:14 VDD!:23 1.33888e-17 $lvl1=1 $lvl2=1
CA81 A:14 VDD!:24 6.68791e-18 $lvl1=1 $lvl2=1
CA82 A:12 VDD! 5.86369e-18 $lvl1=2 $lvl2=1
CA83 A:8 VDD!:4 6.37202e-18 $lvl1=3 $lvl2=2
CA84 Mmn0:g B:15 2.57987e-18 $lvl1=3 $lvl2=3
CA85 A:17 B:30 2.18984e-18 $lvl1=1 $lvl2=1
CA86 A:9 B:15 1.62545e-18 $lvl1=3 $lvl2=3
CA87 A:15 B:30 1.22588e-18 $lvl1=1 $lvl2=1
CA88 A:14 B:30 6.58453e-19 $lvl1=1 $lvl2=1
CA89 A:14 B:28 1.11092e-17 $lvl1=1 $lvl2=1
CA90 A:12 B:28 5.09194e-18 $lvl1=2 $lvl2=1
CA91 A:15 B:28 4.35177e-17 $lvl1=1 $lvl2=1
CA92 A:17 B:28 1.34785e-17 $lvl1=1 $lvl2=1
ReA1 A:14 A 0.310096 $metal1  $L=0.645 $W=0.260000 $SI_W=0.26 $TYPE=10 $DIR=1 $LLX=0.330000 $LLY=2.560000 $URX=0.590000 $URY=3.205000 $lvl=1
ReA2 A A:15 0.234665 $metal1  $L=0.5 $W=0.260000 $SI_W=0.26 $TYPE=10 $DIR=1 $LLX=0.330000 $LLY=2.060000 $URX=0.590000 $URY=2.560000 $lvl=1
ReA3 A:15 A:16 0.049461 $metal1  $L=0.1145 $W=0.290000 $SI_W=0.29 $TYPE=10 $DIR=1 $LLX=0.320000 $LLY=1.945500 $URX=0.610000 $URY=2.060000 $lvl=1
ReA4 A:16 A:17 0.043377 $metal1  $L=0.09 $W=0.260000 $SI_W=0.26 $TYPE=10 $DIR=1 $LLX=0.330000 $LLY=1.855000 $URX=0.590000 $URY=1.945000 $lvl=1
RgA5 A:8 Mmp0:g 173.519989 $poly  $L=0.54 $W=0.150000 $SI_W=0.15 $TYPE=10 $DIR=1 $LLX=0.400000 $LLY=3.275000 $URX=0.550000 $URY=3.815000 $lvl=3
RgA6 Mmp0:g A:9 371.579102 $poly  $L=1.215 $W=0.150000 $SI_W=0.15 $TYPE=10 $DIR=1 $LLX=0.400000 $LLY=2.060000 $URX=0.550000 $URY=3.275000 $lvl=3
RgA7 A:9 A:10 34.134449 $poly  $L=0.1645 $W=0.270000 $SI_W=0.27 $TYPE=10 $DIR=1 $LLX=0.330000 $LLY=1.895500 $URX=0.600000 $URY=2.060000 $lvl=3
RgA8 A:10 Mmn0:g 389.661285 $poly  $L=1.2125 $W=0.150000 $SI_W=0.15 $TYPE=10 $DIR=1 $LLX=0.400000 $LLY=0.682500 $URX=0.550000 $URY=1.895000 $lvl=3
RgA9 Mmn0:g A:11 116.483322 $poly  $L=0.3625 $W=0.150000 $SI_W=0.15 $TYPE=10 $DIR=1 $LLX=0.400000 $LLY=0.320000 $URX=0.550000 $URY=0.682500 $lvl=3
RjA10 A:12 A:15 152.000000 $mcon  $L=0.17 $W=0.17 $A=0.0289 $VC=0 $SAVL=0 $SAVC=0 $SI_A=0.0289 $COVER_DIR=0 $LLX=0.000000 $LLY=0.000000 $URX=0.170000 $URY=0.170000 $lvl=6
RiA11 A:9 A:12 15.000000 $licon  $L=0.17 $W=0.17 $A=0.0289 $VC=0 $SAVL=0 $SAVC=0 $SI_A=0.0289 $COVER_DIR=0 $LLX=0.000000 $LLY=0.000000 $URX=0.170000 $URY=0.170000 $lvl=7
*
*|NET Y 3.11562e-15
*|P (Y X 0 4.6150 1.7400) // $llx=4.6150 $lly=1.7400 $urx=4.6150 $ury=1.7400 $lvl=1
*|I (Mmp5:d Mmp5 d X 0 3.7705 2.9350) // $llx=3.7705 $lly=2.9350 $urx=3.7705 $ury=2.9350 $lvl=4
*|I (Mmp5@1:d Mmp5@1 d X 0 4.0495 2.9350) // $llx=4.0495 $lly=2.9350 $urx=4.0495 $ury=2.9350 $lvl=4
*|I (Mmp5@2:d Mmp5@2 d X 0 4.6305 2.9350) // $llx=4.6305 $lly=2.9350 $urx=4.6305 $ury=2.9350 $lvl=4
*|I (Mmp5@3:d Mmp5@3 d X 0 4.9095 2.9350) // $llx=4.9095 $lly=2.9350 $urx=4.9095 $ury=2.9350 $lvl=4
*|I (Mmn5:d Mmn5 d X 0 3.7705 0.8500) // $llx=3.7705 $lly=0.8500 $urx=3.7705 $ury=0.8500 $lvl=4
*|I (Mmn5@1:d Mmn5@1 d X 0 4.0495 0.8500) // $llx=4.0495 $lly=0.8500 $urx=4.0495 $ury=0.8500 $lvl=4
*|I (Mmn5@2:d Mmn5@2 d X 0 4.6305 0.8500) // $llx=4.6305 $lly=0.8500 $urx=4.6305 $ury=0.8500 $lvl=4
*|I (Mmn5@3:d Mmn5@3 d X 0 4.9095 0.8500) // $llx=4.9095 $lly=0.8500 $urx=4.9095 $ury=0.8500 $lvl=4
*|S (Y:1 3.9100 3.6650) // $llx=3.9100 $lly=3.6650 $urx=3.9100 $ury=3.6650 $lvl=2
*|S (Y:3 3.9100 2.9350) // $llx=3.9100 $lly=2.9350 $urx=3.9100 $ury=2.9350 $lvl=2
*|S (Y:4 3.9100 2.8250) // $llx=3.9100 $lly=2.8250 $urx=3.9100 $ury=2.8250 $lvl=2
*|S (Y:5 3.9100 2.2050) // $llx=3.9100 $lly=2.2050 $urx=3.9100 $ury=2.2050 $lvl=2
*|S (Y:6 3.9100 1.2300) // $llx=3.9100 $lly=1.2300 $urx=3.9100 $ury=1.2300 $lvl=2
*|S (Y:7 3.9100 0.8850) // $llx=3.9100 $lly=0.8850 $urx=3.9100 $ury=0.8850 $lvl=2
*|S (Y:9 3.9100 0.8500) // $llx=3.9100 $lly=0.8500 $urx=3.9100 $ury=0.8500 $lvl=2
*|S (Y:10 3.9100 0.4700) // $llx=3.9100 $lly=0.4700 $urx=3.9100 $ury=0.4700 $lvl=2
*|S (Y:11 4.7700 3.6650) // $llx=4.7700 $lly=3.6650 $urx=4.7700 $ury=3.6650 $lvl=2
*|S (Y:13 4.7700 2.9350) // $llx=4.7700 $lly=2.9350 $urx=4.7700 $ury=2.9350 $lvl=2
*|S (Y:14 4.7700 2.8250) // $llx=4.7700 $lly=2.8250 $urx=4.7700 $ury=2.8250 $lvl=2
*|S (Y:15 4.7700 2.2050) // $llx=4.7700 $lly=2.2050 $urx=4.7700 $ury=2.2050 $lvl=2
*|S (Y:16 4.7700 1.2300) // $llx=4.7700 $lly=1.2300 $urx=4.7700 $ury=1.2300 $lvl=2
*|S (Y:17 4.7700 0.8850) // $llx=4.7700 $lly=0.8850 $urx=4.7700 $ury=0.8850 $lvl=2
*|S (Y:19 4.7700 0.8500) // $llx=4.7700 $lly=0.8500 $urx=4.7700 $ury=0.8500 $lvl=2
*|S (Y:20 4.7700 0.4700) // $llx=4.7700 $lly=0.4700 $urx=4.7700 $ury=0.4700 $lvl=2
*|S (Y:21 4.6775 3.3300) // $llx=4.6775 $lly=3.3300 $urx=4.6775 $ury=3.3300 $lvl=1
*|S (Y:22 4.7700 2.8250) // $llx=4.7700 $lly=2.8250 $urx=4.7700 $ury=2.8250 $lvl=1
*|S (Y:23 4.6775 2.3200) // $llx=4.6775 $lly=2.3200 $urx=4.6775 $ury=2.3200 $lvl=1
*|S (Y:24 3.9100 1.7650) // $llx=3.9100 $lly=1.7650 $urx=3.9100 $ury=1.7650 $lvl=1
*|S (Y:25 3.9100 0.8850) // $llx=3.9100 $lly=0.8850 $urx=3.9100 $ury=0.8850 $lvl=1
*|S (Y:26 4.6775 1.2095) // $llx=4.6775 $lly=1.2095 $urx=4.6775 $ury=1.2095 $lvl=1
*|S (Y:27 4.7700 0.8850) // $llx=4.7700 $lly=0.8850 $urx=4.7700 $ury=0.8850 $lvl=1
*|S (Y:28 4.6775 0.5600) // $llx=4.6775 $lly=0.5600 $urx=4.6775 $ury=0.5600 $lvl=1
*|S (Y:29 3.9100 2.8250) // $llx=3.9100 $lly=2.8250 $urx=3.9100 $ury=2.8250 $lvl=1
*|S (Y:30 3.9100 3.3300) // $llx=3.9100 $lly=3.3300 $urx=3.9100 $ury=3.3300 $lvl=1
*|S (Y:31 3.9100 0.5600) // $llx=3.9100 $lly=0.5600 $urx=3.9100 $ury=0.5600 $lvl=1
CC1 Mmn5@2:d VSS! 7.23759e-19 $lvl=4
CC2 Mmn5:d VSS! 5.93324e-19 $lvl=4
CC3 Mmp5@2:d VSS! 8.49056e-19 $lvl=4
CC4 Mmp5:d VSS! 7.84718e-19 $lvl=4
CC5 Y:27 VSS! 7.54161e-18 $lvl=1
CC6 Y:25 VSS! 7.95888e-18 $lvl=1
CC7 Y:23 VSS! 6.67761e-18 $lvl=1
CC8 Y:22 VSS! 4.55698e-18 $lvl=1
CC9 Y:21 VSS! 4.59616e-18 $lvl=1
CC10 Y:30 VSS! 8.44567e-18 $lvl=1
CC11 Y:31 VSS! 1.71852e-18 $lvl=1
CC12 Y:24 VSS! 8.78771e-18 $lvl=1
CC13 Y:16 VSS! 3.58046e-18 $lvl=2
CC14 Y:20 VSS! 6.37456e-19 $lvl=2
CC15 Y:11 VSS! 2.84109e-18 $lvl=2
CC16 Y:15 VSS! 1.93707e-18 $lvl=2
CC17 Y:6 VSS! 3.70404e-18 $lvl=2
CC18 Y:10 VSS! 7.93996e-19 $lvl=2
CC19 Y:1 VSS! 4.91826e-18 $lvl=2
CC20 Y:5 VSS! 4.25102e-18 $lvl=2
CC21 Y:7 VSS! 1.88411e-18 $lvl=2
CC22 Y:4 VSS! 3.57198e-18 $lvl=2
CC23 Y:17 VSS! 2.01827e-18 $lvl=2
CC24 Y:14 VSS! 2.14324e-18 $lvl=2
CC25 Y VSS! 5.97631e-18 $lvl=1
CC26 Y:24 net112:11 4.5524e-18 $lvl1=1 $lvl2=1
CC27 Y:4 net112:11 2.08386e-18 $lvl1=2 $lvl2=1
CC28 Y:1 net112:11 1.62763e-18 $lvl1=2 $lvl2=1
CC29 Y:21 net112:11 1.6054e-18 $lvl1=1 $lvl2=1
CC30 Y:30 net112:6 1.3074e-18 $lvl1=1 $lvl2=2
CC31 Y:30 net112:13 9.2431e-19 $lvl1=1 $lvl2=1
CC32 Y net112:11 8.25261e-19 $lvl1=1 $lvl2=1
CC33 Y:30 net112:11 3.19307e-17 $lvl1=1 $lvl2=1
CC34 Y:25 n0:53 5.42633e-18 $lvl1=1 $lvl2=2
CC35 Y:7 n0:53 4.01249e-18 $lvl1=2 $lvl2=2
CC36 Y:30 n0:56 3.94835e-18 $lvl1=1 $lvl2=1
CC37 Y n0:32 3.50359e-18 $lvl1=1 $lvl2=3
CC38 Y:17 n0:53 3.21612e-18 $lvl1=2 $lvl2=2
CC39 Y:24 n0:54 2.88315e-18 $lvl1=1 $lvl2=2
CC40 Y:6 n0:55 2.6068e-18 $lvl1=2 $lvl2=2
CC41 Y:15 n0:32 2.29972e-18 $lvl1=2 $lvl2=3
CC42 Y:24 n0:32 2.23143e-18 $lvl1=1 $lvl2=3
CC43 Y:5 n0:32 2.14673e-18 $lvl1=2 $lvl2=3
CC44 Y:23 n0:53 2.01887e-18 $lvl1=1 $lvl2=2
CC45 Y:15 n0:53 1.93613e-18 $lvl1=2 $lvl2=2
CC46 Y:24 n0:55 1.86623e-18 $lvl1=1 $lvl2=2
CC47 Y:11 n0:32 1.7497e-18 $lvl1=2 $lvl2=3
CC48 Mmn5:d n0:32 1.52911e-18 $lvl1=4 $lvl2=3
CC49 Y:27 n0:56 1.36997e-18 $lvl1=1 $lvl2=1
CC50 Y:5 n0:53 1.33845e-18 $lvl1=2 $lvl2=2
CC51 Y:25 n0:54 1.33398e-18 $lvl1=1 $lvl2=2
CC52 Y:24 n0:58 1.30706e-18 $lvl1=1 $lvl2=1
CC53 Mmn5@2:d n0:32 1.28638e-18 $lvl1=4 $lvl2=3
CC54 Y:1 n0:32 1.21982e-18 $lvl1=2 $lvl2=3
CC55 Y:15 n0:29 1.20347e-18 $lvl1=2 $lvl2=3
CC56 Y:5 n0:39 1.1599e-18 $lvl1=2 $lvl2=3
CC57 Y:5 n0:40 1.10516e-18 $lvl1=2 $lvl2=3
CC58 Y:7 n0:56 1.09865e-18 $lvl1=2 $lvl2=1
CC59 Y:15 n0:37 1.07807e-18 $lvl1=2 $lvl2=3
CC60 Y n0:56 1.05536e-18 $lvl1=1 $lvl2=1
CC61 Y:30 n0:61 1.05516e-18 $lvl1=1 $lvl2=1
CC62 Y:27 n0:32 9.44325e-19 $lvl1=1 $lvl2=3
CC63 Y:23 n0:32 9.03691e-19 $lvl1=1 $lvl2=3
CC64 Y:20 n0:36 8.86179e-19 $lvl1=2 $lvl2=3
CC65 Y:25 n0:58 8.41303e-19 $lvl1=1 $lvl2=1
CC66 Y:30 n0:58 7.97747e-19 $lvl1=1 $lvl2=1
CC67 Y:7 n0:54 7.56451e-19 $lvl1=2 $lvl2=2
CC68 Mmp5@2:d n0:32 7.42819e-19 $lvl1=4 $lvl2=3
CC69 Y:25 n0:59 7.35866e-19 $lvl1=1 $lvl2=1
CC70 Y:11 n0:39 7.19966e-19 $lvl1=2 $lvl2=3
CC71 Y:24 n0:61 7.10172e-19 $lvl1=1 $lvl2=1
CC72 Y:25 n0:55 7.04157e-19 $lvl1=1 $lvl2=2
CC73 Y:10 n0 6.92132e-19 $lvl1=2 $lvl2=3
CC74 Y:30 n0:53 6.71556e-19 $lvl1=1 $lvl2=2
CC75 Y:7 n0:55 6.64e-19 $lvl1=2 $lvl2=2
CC76 Y:10 Mmn5@1:g 6.39499e-19 $lvl1=2 $lvl2=3
CC77 Y:11 n0:53 5.87161e-19 $lvl1=2 $lvl2=2
CC78 Y:1 n0:53 5.7484e-19 $lvl1=2 $lvl2=2
CC79 Y:20 Mmn5@3:g 5.72322e-19 $lvl1=2 $lvl2=3
CC80 Y:6 n0:56 5.63234e-19 $lvl1=2 $lvl2=1
CC81 Y:6 n0:54 5.1976e-19 $lvl1=2 $lvl2=2
CC82 Y:31 n0:56 4.92501e-19 $lvl1=1 $lvl2=1
CC83 Y:25 n0:61 4.73307e-19 $lvl1=1 $lvl2=1
CC84 Mmp5:d n0:32 4.64373e-19 $lvl1=4 $lvl2=3
CC85 Y:22 n0:56 4.47166e-19 $lvl1=1 $lvl2=1
CC86 Y:1 n0:37 4.45244e-19 $lvl1=2 $lvl2=3
CC87 Y:4 n0:53 4.35903e-19 $lvl1=2 $lvl2=2
CC88 Y n0:58 4.34042e-19 $lvl1=1 $lvl2=1
CC89 Y:23 n0:29 4.31431e-19 $lvl1=1 $lvl2=3
CC90 Y:16 Mmn5@1:g 4.26051e-19 $lvl1=2 $lvl2=3
CC91 Y:5 n0:56 4.21333e-19 $lvl1=2 $lvl2=1
CC92 Y:22 n0:53 3.91171e-19 $lvl1=1 $lvl2=2
CC93 Y:5 n0:55 3.83581e-19 $lvl1=2 $lvl2=2
CC94 Y:27 n0:58 3.79256e-19 $lvl1=1 $lvl2=1
CC95 Y n0:53 2.07288e-17 $lvl1=1 $lvl2=2
CC96 Y:6 Mmn5@1:g 1.23412e-16 $lvl1=2 $lvl2=3
CC97 Y:11 n0:37 2.50582e-16 $lvl1=2 $lvl2=3
CC98 Y:11 n0:29 2.37095e-16 $lvl1=2 $lvl2=3
CC99 Y:27 n0:53 1.06043e-17 $lvl1=1 $lvl2=2
CC100 Y:6 n0 1.26797e-16 $lvl1=2 $lvl2=3
CC101 Y:6 n0:32 1.3646e-17 $lvl1=2 $lvl2=3
CC102 Y:16 n0:53 1.68181e-17 $lvl1=2 $lvl2=2
CC103 Y:16 n0:36 1.22262e-16 $lvl1=2 $lvl2=3
CC104 Y:16 Mmn5@3:g 1.28594e-16 $lvl1=2 $lvl2=3
CC105 Y:1 n0:40 2.49246e-16 $lvl1=2 $lvl2=3
CC106 Y:1 n0:39 2.49173e-16 $lvl1=2 $lvl2=3
CC107 Y:24 n0:56 3.37418e-17 $lvl1=1 $lvl2=1
CC108 Y:6 n0:53 1.50215e-17 $lvl1=2 $lvl2=2
CC109 Y:16 n0:32 1.38785e-17 $lvl1=2 $lvl2=3
CC110 Y:24 n0:53 1.44254e-17 $lvl1=1 $lvl2=2
CC111 Y:25 n0:56 2.21413e-17 $lvl1=1 $lvl2=1
CC112 Y:25 VSS!:17 6.49021e-18 $lvl1=1 $lvl2=2
CC113 Y:10 VSS!:10 6.42327e-18 $lvl1=2 $lvl2=2
CC114 Y:25 VSS!:14 6.41294e-18 $lvl1=1 $lvl2=2
CC115 Y:10 VSS!:14 5.72832e-18 $lvl1=2 $lvl2=2
CC116 Y:10 VSS!:17 5.60617e-18 $lvl1=2 $lvl2=2
CC117 Y:20 VSS!:3 5.4485e-18 $lvl1=2 $lvl2=2
CC118 Y:20 VSS!:5 5.39267e-18 $lvl1=2 $lvl2=2
CC119 Y:20 VSS!:14 5.2188e-18 $lvl1=2 $lvl2=2
CC120 Y:10 VSS!:5 4.67528e-18 $lvl1=2 $lvl2=2
CC121 Y:20 VSS!:4 4.08097e-18 $lvl1=2 $lvl2=2
CC122 Y:16 VSS!:5 4.02735e-18 $lvl1=2 $lvl2=2
CC123 Y:27 VSS!:22 3.90648e-18 $lvl1=1 $lvl2=1
CC124 Y VSS!:3 3.04767e-18 $lvl1=1 $lvl2=2
CC125 Y:6 VSS!:10 2.94573e-18 $lvl1=2 $lvl2=2
CC126 Y:27 VSS!:7 2.84484e-18 $lvl1=1 $lvl2=2
CC127 Y:7 VSS!:23 2.79985e-18 $lvl1=2 $lvl2=1
CC128 Y:6 VSS!:5 2.61923e-18 $lvl1=2 $lvl2=2
CC129 Y:27 VSS!:5 2.55306e-18 $lvl1=1 $lvl2=2
CC130 Y:16 VSS!:4 2.3542e-18 $lvl1=2 $lvl2=2
CC131 Y:27 VSS!:4 2.25552e-18 $lvl1=1 $lvl2=2
CC132 Y:24 VSS!:23 2.22938e-18 $lvl1=1 $lvl2=1
CC133 Y VSS!:23 2.2271e-18 $lvl1=1 $lvl2=1
CC134 Y:23 VSS!:23 1.94847e-18 $lvl1=1 $lvl2=1
CC135 Y:10 VSS!:23 1.86327e-18 $lvl1=2 $lvl2=1
CC136 Y:20 VSS!:7 1.83211e-18 $lvl1=2 $lvl2=2
CC137 Y:10 VSS!:7 1.6819e-18 $lvl1=2 $lvl2=2
CC138 Y:20 VSS!:23 1.62489e-18 $lvl1=2 $lvl2=1
CC139 Y:30 VSS!:23 1.5724e-18 $lvl1=1 $lvl2=1
CC140 Mmn5@2:d VSS!:14 1.54085e-18 $lvl1=4 $lvl2=2
CC141 Mmn5:d VSS!:10 1.51469e-18 $lvl1=4 $lvl2=2
CC142 Y:7 VSS!:10 1.47985e-18 $lvl1=2 $lvl2=2
CC143 Mmn5:d VSS!:17 1.41795e-18 $lvl1=4 $lvl2=2
CC144 Y:7 VSS!:5 1.36325e-18 $lvl1=2 $lvl2=2
CC145 Mmn5@2:d VSS!:5 1.32271e-18 $lvl1=4 $lvl2=2
CC146 Y:23 VSS!:3 1.30878e-18 $lvl1=1 $lvl2=2
CC147 Y:17 VSS!:23 1.27816e-18 $lvl1=2 $lvl2=1
CC148 Y:21 VSS!:23 1.27642e-18 $lvl1=1 $lvl2=1
CC149 Y:31 VSS!:17 1.22364e-18 $lvl1=1 $lvl2=2
CC150 Y:22 VSS!:23 1.19308e-18 $lvl1=1 $lvl2=1
CC151 Y:17 VSS!:5 1.1452e-18 $lvl1=2 $lvl2=2
CC152 Mmn5:d VSS!:5 1.03177e-18 $lvl1=4 $lvl2=2
CC153 Y VSS!:14 1.02505e-18 $lvl1=1 $lvl2=2
CC154 Y:31 VSS!:7 1.02207e-18 $lvl1=1 $lvl2=2
CC155 Y VSS!:22 1.00662e-18 $lvl1=1 $lvl2=1
CC156 Y:7 VSS!:7 9.67823e-19 $lvl1=2 $lvl2=2
CC157 Y:23 VSS!:7 9.41009e-19 $lvl1=1 $lvl2=2
CC158 Y:25 VSS!:7 9.00952e-19 $lvl1=1 $lvl2=2
CC159 Y:31 VSS!:10 8.75078e-19 $lvl1=1 $lvl2=2
CC160 Y:31 VSS!:5 8.61439e-19 $lvl1=1 $lvl2=2
CC161 Y:31 VSS!:14 8.57886e-19 $lvl1=1 $lvl2=2
CC162 Y:24 VSS!:14 8.42329e-19 $lvl1=1 $lvl2=2
CC163 Y:27 VSS!:12 7.22485e-19 $lvl1=1 $lvl2=2
CC164 Y:17 VSS!:4 6.77894e-19 $lvl1=2 $lvl2=2
CC165 Y:17 VSS!:7 6.65869e-19 $lvl1=2 $lvl2=2
CC166 Y:25 VSS!:5 6.23908e-19 $lvl1=1 $lvl2=2
CC167 Y:25 VSS!:10 5.77902e-19 $lvl1=1 $lvl2=2
CC168 Mmn5@2:d VSS!:4 5.42112e-19 $lvl1=4 $lvl2=2
CC169 Y:16 VSS!:23 5.41869e-19 $lvl1=2 $lvl2=1
CC170 Y:25 VSS!:22 4.8975e-19 $lvl1=1 $lvl2=1
CC171 Y:6 VSS!:14 3.51922e-17 $lvl1=2 $lvl2=2
CC172 Y:27 VSS!:3 1.49867e-17 $lvl1=1 $lvl2=2
CC173 Y:27 VSS!:23 5.17664e-17 $lvl1=1 $lvl2=1
CC174 Y:31 VSS!:23 1.9248e-17 $lvl1=1 $lvl2=1
CC175 Y:25 VSS!:23 2.24083e-17 $lvl1=1 $lvl2=1
CC176 Y:16 VSS!:14 3.86609e-17 $lvl1=2 $lvl2=2
CC177 Y:7 VSS!:17 1.61327e-17 $lvl1=2 $lvl2=2
CC178 Y:7 VSS!:14 1.5903e-17 $lvl1=2 $lvl2=2
CC179 Y:27 VSS!:14 1.60267e-17 $lvl1=1 $lvl2=2
CC180 Y:17 VSS!:14 1.34185e-17 $lvl1=2 $lvl2=2
CC181 Y:17 VSS!:3 1.43525e-17 $lvl1=2 $lvl2=2
CC182 Y:6 VSS!:17 3.65462e-17 $lvl1=2 $lvl2=2
CC183 Y:16 VSS!:3 3.64678e-17 $lvl1=2 $lvl2=2
CC184 Y:11 VDD!:13 9.71164e-18 $lvl1=2 $lvl2=2
CC185 Y:11 VDD!:17 9.45123e-18 $lvl1=2 $lvl2=2
CC186 Y:23 VDD! 9.20876e-18 $lvl1=1 $lvl2=1
CC187 Y:23 VDD!:15 8.25461e-18 $lvl1=1 $lvl2=2
CC188 Y:22 VDD!:19 8.20839e-18 $lvl1=1 $lvl2=2
CC189 Y:22 VDD!:15 7.75195e-18 $lvl1=1 $lvl2=2
CC190 Y:15 VDD!:19 7.71024e-18 $lvl1=2 $lvl2=2
CC191 Y:25 VDD! 7.5261e-18 $lvl1=1 $lvl2=1
CC192 Y:5 VDD!:15 7.22354e-18 $lvl1=2 $lvl2=2
CC193 Y:23 VDD!:19 6.61451e-18 $lvl1=1 $lvl2=2
CC194 Y:15 VDD!:15 6.54327e-18 $lvl1=2 $lvl2=2
CC195 Y:14 VDD!:19 6.34314e-18 $lvl1=2 $lvl2=2
CC196 Y:11 VDD!:23 6.17196e-18 $lvl1=2 $lvl2=1
CC197 Y:1 VDD!:23 5.75625e-18 $lvl1=2 $lvl2=1
CC198 Y:5 VDD!:11 5.7205e-18 $lvl1=2 $lvl2=2
CC199 Y VDD!:19 5.58962e-18 $lvl1=1 $lvl2=2
CC200 Y:14 VDD!:15 5.10743e-18 $lvl1=2 $lvl2=2
CC201 Y:24 VDD! 4.96141e-18 $lvl1=1 $lvl2=1
CC202 Y VDD!:15 4.09001e-18 $lvl1=1 $lvl2=2
CC203 Y:22 VDD!:23 3.66339e-18 $lvl1=1 $lvl2=1
CC204 Y:24 VDD!:11 2.80969e-18 $lvl1=1 $lvl2=2
CC205 Y:24 VDD!:15 2.6916e-18 $lvl1=1 $lvl2=2
CC206 Y:1 VDD!:6 2.66879e-18 $lvl1=2 $lvl2=2
CC207 Y:21 VDD!:22 2.52647e-18 $lvl1=1 $lvl2=1
CC208 Y:23 VDD!:23 2.49789e-18 $lvl1=1 $lvl2=1
CC209 Y:11 VDD! 2.40567e-18 $lvl1=2 $lvl2=1
CC210 Y:11 VDD!:6 2.0186e-18 $lvl1=2 $lvl2=2
CC211 Y:27 VDD!:19 2.01477e-18 $lvl1=1 $lvl2=2
CC212 Y:21 VDD!:13 1.96828e-18 $lvl1=1 $lvl2=2
CC213 Y:27 VDD!:23 1.74991e-18 $lvl1=1 $lvl2=1
CC214 Mmp5@2:d VDD!:13 1.71938e-18 $lvl1=4 $lvl2=2
CC215 Mmp5:d VDD!:4 1.71245e-18 $lvl1=4 $lvl2=2
CC216 Y:24 VDD!:23 1.38941e-18 $lvl1=1 $lvl2=1
CC217 Y:21 VDD!:17 1.28271e-18 $lvl1=1 $lvl2=2
CC218 Y:31 VDD! 1.27535e-18 $lvl1=1 $lvl2=1
CC219 Y VDD!:23 1.25365e-18 $lvl1=1 $lvl2=1
CC220 Y:1 VDD! 1.16695e-18 $lvl1=2 $lvl2=1
CC221 Y:4 VDD!:23 1.13892e-18 $lvl1=2 $lvl2=1
CC222 Y:30 VDD!:6 1.00002e-18 $lvl1=1 $lvl2=2
CC223 Y:11 VDD!:7 9.83739e-19 $lvl1=2 $lvl2=4
CC224 Y:25 VDD!:23 9.75865e-19 $lvl1=1 $lvl2=1
CC225 Y:21 VDD!:6 9.71869e-19 $lvl1=1 $lvl2=2
CC226 Y:30 VDD!:13 9.49917e-19 $lvl1=1 $lvl2=2
CC227 Y:30 VDD!:4 9.39949e-19 $lvl1=1 $lvl2=2
CC228 Y:30 VDD!:19 9.18713e-19 $lvl1=1 $lvl2=2
CC229 Y:22 VDD!:22 9.13813e-19 $lvl1=1 $lvl2=1
CC230 Y:23 VDD!:22 7.99206e-19 $lvl1=1 $lvl2=1
CC231 Mmp5:d VDD!:13 7.95177e-19 $lvl1=4 $lvl2=2
CC232 Y:15 VDD! 7.76515e-19 $lvl1=2 $lvl2=1
CC233 Y VDD!:22 7.62039e-19 $lvl1=1 $lvl2=1
CC234 Mmp5@2:d VDD!:19 6.83102e-19 $lvl1=4 $lvl2=2
CC235 Y:1 VDD!:7 6.27649e-19 $lvl1=2 $lvl2=4
CC236 Mmp5:d VDD!:15 5.47559e-19 $lvl1=4 $lvl2=2
CC237 Y:11 Mmp5@3:s 5.15102e-19 $lvl1=2 $lvl2=4
CC238 Y:21 VDD!:21 4.99292e-19 $lvl1=1 $lvl2=2
CC239 Y:22 VDD!:17 4.87345e-19 $lvl1=1 $lvl2=2
CC240 Y:30 VDD!:22 4.31652e-19 $lvl1=1 $lvl2=1
CC241 Y:21 VDD! 1.20396e-17 $lvl1=1 $lvl2=1
CC242 Y:21 VDD!:15 1.38838e-17 $lvl1=1 $lvl2=2
CC243 Y:30 VDD! 1.16202e-17 $lvl1=1 $lvl2=1
CC244 Y:4 VDD!:15 1.04529e-17 $lvl1=2 $lvl2=2
CC245 Y:4 VDD!:11 1.06853e-17 $lvl1=2 $lvl2=2
CC246 Y:11 VDD!:19 1.03226e-16 $lvl1=2 $lvl2=2
CC247 Y:1 VDD!:15 9.35523e-17 $lvl1=2 $lvl2=2
CC248 Y:11 VDD!:15 9.49097e-17 $lvl1=2 $lvl2=2
CC249 Y:30 VDD!:15 1.19061e-17 $lvl1=1 $lvl2=2
CC250 Y:1 VDD!:11 1.02173e-16 $lvl1=2 $lvl2=2
CC251 Y:30 VDD!:11 1.51651e-17 $lvl1=1 $lvl2=2
CC252 Y:21 VDD!:23 2.83063e-17 $lvl1=1 $lvl2=1
CC253 Y:1 VDD!:13 1.02244e-17 $lvl1=2 $lvl2=2
CC254 Y:21 VDD!:19 1.17534e-17 $lvl1=1 $lvl2=2
CC255 Y:27 VDD! 1.92786e-17 $lvl1=1 $lvl2=1
CC256 Y:30 VDD!:23 2.59802e-17 $lvl1=1 $lvl2=1
CC257 Y VDD! 1.18265e-17 $lvl1=1 $lvl2=1
CC258 Y:1 VDD!:4 1.04882e-17 $lvl1=2 $lvl2=2
CC259 Y:22 VDD! 1.01609e-17 $lvl1=1 $lvl2=1
ReC32 Y:21 Y:22 0.152108 $metal1  $L=0.505 $W=0.415000 $SI_W=0.415 $TYPE=10 $DIR=1 $LLX=4.470000 $LLY=2.825000 $URX=4.885000 $URY=3.330000 $lvl=1
ReC33 Y:22 Y:23 0.152033 $metal1  $L=0.5045 $W=0.415000 $SI_W=0.415 $TYPE=10 $DIR=1 $LLX=4.470000 $LLY=2.320500 $URX=4.885000 $URY=2.824500 $lvl=1
ReC34 Y:23 Y 0.278921 $metal1  $L=0.58 $W=0.260000 $SI_W=0.26 $TYPE=10 $DIR=1 $LLX=4.470000 $LLY=1.740000 $URX=4.730000 $URY=2.320000 $lvl=1
ReC35 Y Y:24 0.373923 $metal1  $L=0.70475 $W=0.230000 $SI_W=0.23 $TYPE=10 $DIR=0 $LLX=3.910000 $LLY=1.650000 $URX=4.615000 $URY=1.880000 $lvl=1
ReC36 Y:24 Y:25 0.478397 $metal1  $L=0.88025 $W=0.230000 $SI_W=0.23 $TYPE=10 $DIR=1 $LLX=3.795000 $LLY=0.885000 $URX=4.025000 $URY=1.765000 $lvl=1
ReC37 Y Y:26 0.254883 $metal1  $L=0.53 $W=0.260000 $SI_W=0.26 $TYPE=10 $DIR=1 $LLX=4.470000 $LLY=1.209500 $URX=4.730000 $URY=1.739500 $lvl=1
ReC38 Y:26 Y:27 0.115162 $metal1  $L=0.3245 $W=0.415000 $SI_W=0.415 $TYPE=10 $DIR=1 $LLX=4.470000 $LLY=0.885000 $URX=4.885000 $URY=1.209500 $lvl=1
ReC39 Y:27 Y:28 0.097892 $metal1  $L=0.325 $W=0.415000 $SI_W=0.415 $TYPE=10 $DIR=1 $LLX=4.562500 $LLY=0.560000 $URX=4.977500 $URY=0.885000 $lvl=1
ReC40 Y:24 Y:29 0.575951 $metal1  $L=1.05975 $W=0.230000 $SI_W=0.23 $TYPE=10 $DIR=1 $LLX=3.795000 $LLY=1.765000 $URX=4.025000 $URY=2.825000 $lvl=1
ReC41 Y:29 Y:30 0.274457 $metal1  $L=0.505 $W=0.230000 $SI_W=0.23 $TYPE=10 $DIR=1 $LLX=3.795000 $LLY=2.825000 $URX=4.025000 $URY=3.330000 $lvl=1
ReC42 Y:25 Y:31 0.176630 $metal1  $L=0.325 $W=0.230000 $SI_W=0.23 $TYPE=10 $DIR=1 $LLX=3.795000 $LLY=0.560000 $URX=4.025000 $URY=0.885000 $lvl=1
RfC43 Y:1 Y:3 54.964703 $li  $L=0.73 $W=0.170000 $SI_W=0.17 $TYPE=10 $DIR=1 $LLX=3.825000 $LLY=2.935000 $URX=3.995000 $URY=3.665000 $lvl=2
RfC44 Y:3 Y:4 1.582022 $li  $L=0.11 $W=0.170000 $SI_W=0.89 $TYPE=10 $DIR=1 $LLX=3.825000 $LLY=2.825000 $URX=3.995000 $URY=2.935000 $lvl=2
RfC45 Y:4 Y:5 46.682354 $li  $L=0.62 $W=0.170000 $SI_W=0.17 $TYPE=10 $DIR=1 $LLX=3.825000 $LLY=2.205000 $URX=3.995000 $URY=2.825000 $lvl=2
RfC46 Y:6 Y:7 25.976471 $li  $L=0.345 $W=0.170000 $SI_W=0.17 $TYPE=10 $DIR=1 $LLX=3.825000 $LLY=0.885000 $URX=3.995000 $URY=1.230000 $lvl=2
RfC47 Y:7 Y:9 0.923711 $li  $L=0.035 $W=0.170000 $SI_W=0.485 $TYPE=10 $DIR=1 $LLX=3.825000 $LLY=0.850000 $URX=3.995000 $URY=0.885000 $lvl=2
RfC48 Y:9 Y:10 28.611765 $li  $L=0.38 $W=0.170000 $SI_W=0.17 $TYPE=10 $DIR=1 $LLX=3.825000 $LLY=0.470000 $URX=3.995000 $URY=0.850000 $lvl=2
RfC49 Y:11 Y:13 54.964703 $li  $L=0.73 $W=0.170000 $SI_W=0.17 $TYPE=10 $DIR=1 $LLX=4.685000 $LLY=2.935000 $URX=4.855000 $URY=3.665000 $lvl=2
RfC50 Y:13 Y:14 1.582022 $li  $L=0.11 $W=0.170000 $SI_W=0.89 $TYPE=10 $DIR=1 $LLX=4.685000 $LLY=2.825000 $URX=4.855000 $URY=2.935000 $lvl=2
RfC51 Y:14 Y:15 46.682354 $li  $L=0.62 $W=0.170000 $SI_W=0.17 $TYPE=10 $DIR=1 $LLX=4.685000 $LLY=2.205000 $URX=4.855000 $URY=2.825000 $lvl=2
RfC52 Y:16 Y:17 25.976471 $li  $L=0.345 $W=0.170000 $SI_W=0.17 $TYPE=10 $DIR=1 $LLX=4.685000 $LLY=0.885000 $URX=4.855000 $URY=1.230000 $lvl=2
RfC53 Y:17 Y:19 0.923711 $li  $L=0.035 $W=0.170000 $SI_W=0.485 $TYPE=10 $DIR=1 $LLX=4.685000 $LLY=0.850000 $URX=4.855000 $URY=0.885000 $lvl=2
RfC54 Y:19 Y:20 28.611765 $li  $L=0.38 $W=0.170000 $SI_W=0.17 $TYPE=10 $DIR=1 $LLX=4.685000 $LLY=0.470000 $URX=4.855000 $URY=0.850000 $lvl=2
RhC55 Mmn5:d Y:9 7.500000 $licon_diff  $A=0.0578 $VC=0 $SAVL=0 $SAVC=0 $SI_A=0.0578 $COVER_DIR=0 $LLX=0.000000 $LLY=0.000000 $URX=-0.057800 $URY=-2.000000 $lvl=5
RhC56 Mmn5@2:d Y:19 7.500000 $licon_diff  $A=0.0578 $VC=0 $SAVL=0 $SAVC=0 $SI_A=0.0578 $COVER_DIR=0 $LLX=0.000000 $LLY=0.000000 $URX=-0.057800 $URY=-2.000000 $lvl=5
Rh_2_C57 Mmp5:d Y:3 3.750000 $licon_diff  $A=0.1156 $VC=0 $SAVL=0 $SAVC=0 $SI_A=0.1156 $COVER_DIR=0 $LLX=0.000000 $LLY=0.000000 $URX=-0.115600 $URY=-4.000000 $lvl=5
Rh_2_C58 Mmp5@2:d Y:13 3.750000 $licon_diff  $A=0.1156 $VC=0 $SAVL=0 $SAVC=0 $SI_A=0.1156 $COVER_DIR=0 $LLX=0.000000 $LLY=0.000000 $URX=-0.115600 $URY=-4.000000 $lvl=5
RjC59 Y:14 Y:22 50.666668 $mcon  $A=0.0867 $VC=0 $SAVL=0 $SAVC=0 $SI_A=0.0867 $COVER_DIR=0 $LLX=0.000000 $LLY=0.000000 $URX=-0.086700 $URY=-3.000000 $lvl=6
RjC60 Y:7 Y:25 76.000000 $mcon  $A=0.0578 $VC=0 $SAVL=0 $SAVC=0 $SI_A=0.0578 $COVER_DIR=0 $LLX=0.000000 $LLY=0.000000 $URX=-0.057800 $URY=-2.000000 $lvl=6
RjC61 Y:17 Y:27 76.000000 $mcon  $A=0.0578 $VC=0 $SAVL=0 $SAVC=0 $SI_A=0.0578 $COVER_DIR=0 $LLX=0.000000 $LLY=0.000000 $URX=-0.057800 $URY=-2.000000 $lvl=6
RjC62 Y:4 Y:29 50.666668 $mcon  $A=0.0867 $VC=0 $SAVL=0 $SAVC=0 $SI_A=0.0867 $COVER_DIR=0 $LLX=0.000000 $LLY=0.000000 $URX=-0.086700 $URY=-3.000000 $lvl=6
RmwC63 Mmp5@1:d Mmp5:d 0.001000 $diff $W=1000000 $SI_W=1000000 $TYPE=1 $DIR=0
RmwC64 Mmp5@3:d Mmp5@2:d 0.001000 $diff $W=1000000 $SI_W=1000000 $TYPE=1 $DIR=0
RmwC65 Mmn5@1:d Mmn5:d 0.001000 $diff $W=1000000 $SI_W=1000000 $TYPE=1 $DIR=0
RmwC66 Mmn5@3:d Mmn5@2:d 0.001000 $diff $W=1000000 $SI_W=1000000 $TYPE=1 $DIR=0
*
*|NET n1 3.37177e-15
*|I (Mmp4:d Mmp4 d X 0 2.3905 2.9350) // $llx=2.3905 $lly=2.9350 $urx=2.3905 $ury=2.9350 $lvl=4
*|I (Mmp0:d Mmp0 d X 0 0.3995 3.2750) // $llx=0.3995 $lly=3.2750 $urx=0.3995 $ury=3.2750 $lvl=4
*|I (Mmp2:g Mmp2 g X 0 3.2650 2.9350) // $llx=3.2650 $lly=2.9350 $urx=3.2650 $ury=2.9350 $lvl=3
*|I (Mmn0:d Mmn0 d X 0 0.3995 0.6825) // $llx=0.3995 $lly=0.6825 $urx=0.3995 $ury=0.6825 $lvl=4
*|I (Mmn4:s Mmn4 s X 0 1.8095 0.8500) // $llx=1.8095 $lly=0.8500 $urx=1.8095 $ury=0.8500 $lvl=4
*|I (Mmn2:g Mmn2 g X 0 3.2650 0.8500) // $llx=3.2650 $lly=0.8500 $urx=3.2650 $ury=0.8500 $lvl=3
*|S (n1 3.2650 0.8500) // $llx=3.2650 $lly=0.8500 $urx=3.2650 $ury=0.8500 $lvl=3
*|S (n1:8 3.2650 3.8150) // $llx=3.2650 $lly=3.8150 $urx=3.2650 $ury=3.8150 $lvl=3
*|S (n1:9 3.2050 2.0845) // $llx=3.2050 $lly=2.0845 $urx=3.2050 $ury=2.0845 $lvl=3
*|S (n1:10 3.2050 1.9200) // $llx=3.2050 $lly=1.9200 $urx=3.2050 $ury=1.9200 $lvl=3
*|S (n1:11 3.2050 1.7550) // $llx=3.2050 $lly=1.7550 $urx=3.2050 $ury=1.7550 $lvl=3
*|S (n1:12 3.2650 0.3200) // $llx=3.2650 $lly=0.3200 $urx=3.2650 $ury=0.3200 $lvl=3
*|S (n1:13 1.6700 1.2300) // $llx=1.6700 $lly=1.2300 $urx=1.6700 $ury=1.2300 $lvl=2
*|S (n1:14 1.6700 0.8850) // $llx=1.6700 $lly=0.8850 $urx=1.6700 $ury=0.8850 $lvl=2
*|S (n1:16 1.6700 0.8500) // $llx=1.6700 $lly=0.8500 $urx=1.6700 $ury=0.8500 $lvl=2
*|S (n1:17 1.6700 0.4700) // $llx=1.6700 $lly=0.4700 $urx=1.6700 $ury=0.4700 $lvl=2
*|S (n1:18 3.3700 1.9200) // $llx=3.3700 $lly=1.9200 $urx=3.3700 $ury=1.9200 $lvl=2
*|S (n1:19 3.2050 1.9200) // $llx=3.2050 $lly=1.9200 $urx=3.2050 $ury=1.9200 $lvl=2
*|S (n1:20 2.5300 1.9200) // $llx=2.5300 $lly=1.9200 $urx=2.5300 $ury=1.9200 $lvl=2
*|S (n1:21 1.7300 1.9200) // $llx=1.7300 $lly=1.9200 $urx=1.7300 $ury=1.9200 $lvl=2
*|S (n1:22 0.8850 1.9200) // $llx=0.8850 $lly=1.9200 $urx=0.8850 $ury=1.9200 $lvl=2
*|S (n1:23 0.8850 1.5600) // $llx=0.8850 $lly=1.5600 $urx=0.8850 $ury=1.5600 $lvl=2