*
*|DSPF 1.5
*
*|DATE "Wed Jan  8 18:32:03 2025"
*|VENDOR "Cadence Design Systems"
*|PROGRAM "Cadence Quantus Extraction"
*|VERSION "22.1.0-p089 Linux 64 bit - (Thu Jan 19 11:47:08 PST 2023)"
*|DESIGN XNOR2X1_HS
*|DIVIDER /
*|DELIMITER :
*|DeviceFingerDelim "@"
*|BUSBIT []
*|GLOBAL_TEMPERATURE 25
*|OPERATING_TEMPERATURE 25

** *VIA_COVERAGE_CODES
** *index FF FS FP FU SF SS SP SU PF PS PP PU UF US UP UU X_by_Y
** * "FF" stands for Full landing and Full coverage
** *0 0 0 0 0 0 0 0 0 0 0 0 0 0 0 0 0
** *1 0 0 0 0 0 0 0 0 0 0 0 0 0 0 0 1 1x1
** *2 0 0 0 0 0 0 0 0 0 0 0 0 0 0 1 0 1x1
** *3 0 0 0 0 0 0 0 0 0 0 0 0 0 1 0 0 1x1
** *4 0 0 0 0 0 0 0 0 0 0 0 0 1 0 0 0 1x1
** *5 0 0 0 0 0 0 0 0 0 0 0 1 0 0 0 0 1x1
** *6 0 0 0 0 0 0 0 0 0 0 1 0 0 0 0 0 1x1
** *7 0 0 0 0 0 0 0 0 0 1 0 0 0 0 0 0 1x1
** *8 0 0 0 0 0 0 0 0 1 0 0 0 0 0 0 0 1x1
** *9 0 0 0 0 0 0 0 1 0 0 0 0 0 0 0 0 1x1
** *10 0 0 0 0 0 0 1 0 0 0 0 0 0 0 0 0 1x1
** *11 0 0 0 0 0 1 0 0 0 0 0 0 0 0 0 0 1x1
** *12 0 0 0 0 1 0 0 0 0 0 0 0 0 0 0 0 1x1
** *13 0 0 0 1 0 0 0 0 0 0 0 0 0 0 0 0 1x1
** *14 0 0 1 0 0 0 0 0 0 0 0 0 0 0 0 0 1x1
** *15 0 1 0 0 0 0 0 0 0 0 0 0 0 0 0 0 1x1
** *16 1 0 0 0 0 0 0 0 0 0 0 0 0 0 0 0 1x1

** *RESISTOR_TYPES
** *1 SHORTING_ELEMENT
** *2 PRES_NG
** *3 PRES_PG
** *4 PRES_NF
** *5 PRES_PF
** *6 TCN_NDIFF
** *7 TCN_PDIFF
** *8 TCN_NFIELD
** *9 TCN_PFIELD
** *10 QUALITY_EXTRACTED
** *11 GCNLAND
** *12 TCNLAND
** *13 DUMMY
** *14 RSD
** *15 BRIDGE

** *RESISTOR_CURRENT_DIRECTION
** *0 HORIZONTAL
** *1 VERTICAL
** *2 45 DEGREE

** QRC_TECH_DIR /vols/wfo_devel/projects/reference_SKY130/tech/sky130_release_0.0.4/quantus/extraction/typical 
** HIERARCHICAL_SPLIT_PINS_DELIMITER '%'
** caps2d version: 10
*
.SUBCKT  XNOR2X1_HS A B Y
*
*Net Section
*
*|GROUND_NET VSS!
*
*LAYER_MAP
*0 none
*1 metal1
*2 li
*3 poly
*4 diff
*5 licon_diff
*6 mcon
*7 licon
*8 FOX

*|NET net145 2.65259e-16
*|I (Mmn2:d Mmn2 d X 0 2.1195 0.6125) // $llx=2.1195 $lly=0.6125 $urx=2.1195 $ury=0.6125 $lvl=4
*|I (Mmn3:s Mmn3 s X 0 1.8405 0.6125) // $llx=1.8405 $lly=0.6125 $urx=1.8405 $ury=0.6125 $lvl=4
*|S (net145 1.9800 0.8245) // $llx=1.9800 $lly=0.8245 $urx=1.9800 $ury=0.8245 $lvl=2
*|S (net145:3 1.9800 0.6100) // $llx=1.9800 $lly=0.6100 $urx=1.9800 $ury=0.6100 $lvl=2
*|S (net145:4 1.9800 0.4000) // $llx=1.9800 $lly=0.4000 $urx=1.9800 $ury=0.4000 $lvl=2
CI1 Mmn2:d VSS! 1.00177e-18 $lvl=4
CI2 net145:3 VSS! 3.81219e-18 $lvl=2
CI3 net145:4 VSS! 1.03202e-18 $lvl=2
CI4 net145 VSS! 2.12761e-18 $lvl=2
CI5 net145:3 VSS!:5 1.21292e-18 $lvl1=2 $lvl2=2
CI6 Mmn2:d VSS!:3 9.96774e-19 $lvl1=4 $lvl2=2
CI7 net145:3 VSS!:6 6.65271e-19 $lvl1=2 $lvl2=4
CI8 net145 VSS!:3 5.71848e-18 $lvl1=2 $lvl2=2
CI9 net145:4 VSS!:8 1.09462e-17 $lvl1=2 $lvl2=2
CI10 net145:4 VSS!:3 3.03105e-18 $lvl1=2 $lvl2=2
CI11 net145:3 VSS!:8 1.08674e-17 $lvl1=2 $lvl2=2
CI12 net145:4 VSS!:5 1.99707e-18 $lvl1=2 $lvl2=2
CI13 net145:3 VSS!:3 1.8762e-17 $lvl1=2 $lvl2=2
CI14 net145:4 VSS!:15 1.65214e-18 $lvl1=2 $lvl2=1
CI15 Mmn2:d VSS!:8 1.61364e-18 $lvl1=4 $lvl2=2
CI16 net145:3 VSS!:15 1.33976e-18 $lvl1=2 $lvl2=1
RfI191 net145 net145:3 16.150589 $li  $L=0.2145 $W=0.170000 $SI_W=0.17 $TYPE=10 $DIR=1 $LLX=1.895000 $LLY=0.610000 $URX=2.065000 $URY=0.824500 $lvl=2
RfI192 net145:3 net145:4 15.811765 $li  $L=0.21 $W=0.170000 $SI_W=0.17 $TYPE=10 $DIR=1 $LLX=1.895000 $LLY=0.400000 $URX=2.065000 $URY=0.610000 $lvl=2
RhI193 Mmn2:d net145:3 15.000000 $licon_diff  $L=0.17 $W=0.17 $A=0.0289 $VC=0 $SAVL=0 $SAVC=0 $SI_A=0.0289 $COVER_DIR=0 $LLX=0.000000 $LLY=0.000000 $URX=0.170000 $URY=0.170000 $lvl=5
RmwI194 Mmn3:s Mmn2:d 0.001000 $diff $W=1000000 $SI_W=1000000 $TYPE=1 $DIR=0
*
*|NET net112 2.93092e-16
*|I (Mmp3:s Mmp3 s X 0 1.8405 3.2800) // $llx=1.8405 $lly=3.2800 $urx=1.8405 $ury=3.2800 $lvl=4
*|I (Mmp2:d Mmp2 d X 0 2.1195 3.2800) // $llx=2.1195 $lly=3.2800 $urx=2.1195 $ury=3.2800 $lvl=4
*|S (net112 1.9800 3.4895) // $llx=1.9800 $lly=3.4895 $urx=1.9800 $ury=3.4895 $lvl=2
*|S (net112:3 1.9800 3.1750) // $llx=1.9800 $lly=3.1750 $urx=1.9800 $ury=3.1750 $lvl=2
*|S (net112:4 1.9800 2.8650) // $llx=1.9800 $lly=2.8650 $urx=1.9800 $ury=2.8650 $lvl=2
CI17 Mmp3:s VSS! 1.31118e-18 $lvl=4
CI18 net112:3 VSS! 2.19912e-18 $lvl=2
CI19 net112:4 VSS! 2.39993e-18 $lvl=2
CI20 net112 VSS! 6.28792e-19 $lvl=2
RfI195 net112 net112:3 23.680000 $li  $L=0.3145 $W=0.170000 $SI_W=0.17 $TYPE=10 $DIR=1 $LLX=1.895000 $LLY=3.175000 $URX=2.065000 $URY=3.489500 $lvl=2
RfI196 net112:3 net112:4 23.341177 $li  $L=0.31 $W=0.170000 $SI_W=0.17 $TYPE=10 $DIR=1 $LLX=1.895000 $LLY=2.865000 $URX=2.065000 $URY=3.175000 $lvl=2
Rh_2_I197 Mmp3:s net112:3 15.000000 $licon_diff  $L=0.17 $W=0.17 $A=0.0289 $VC=0 $SAVL=0 $SAVC=0 $SI_A=0.0289 $COVER_DIR=0 $LLX=0.000000 $LLY=0.000000 $URX=0.170000 $URY=0.170000 $lvl=5
RmwI198 Mmp2:d Mmp3:s 0.001000 $diff $W=1000000 $SI_W=1000000 $TYPE=1 $DIR=0
*
*|NET n0 2.79438e-15
*|I (Mmp4:s Mmp4 s X 0 1.4105 3.2800) // $llx=1.4105 $lly=3.2800 $urx=1.4105 $ury=3.2800 $lvl=4
*|I (Mmp3:d Mmp3 d X 0 1.6895 3.2800) // $llx=1.6895 $lly=3.2800 $urx=1.6895 $ury=3.2800 $lvl=4
*|I (Mmp5:g Mmp5 g X 0 2.6850 2.9400) // $llx=2.6850 $lly=2.9400 $urx=2.6850 $ury=2.9400 $lvl=3
*|I (Mmn5:g Mmn5 g X 0 2.6850 0.7800) // $llx=2.6850 $lly=0.7800 $urx=2.6850 $ury=0.7800 $lvl=3
*|I (Mmn3:d Mmn3 d X 0 1.6895 0.6125) // $llx=1.6895 $lly=0.6125 $urx=1.6895 $ury=0.6125 $lvl=4
*|I (Mmn4:d Mmn4 d X 0 1.4105 0.6125) // $llx=1.4105 $lly=0.6125 $urx=1.4105 $ury=0.6125 $lvl=4
*|S (n0 2.6850 0.7800) // $llx=2.6850 $lly=0.7800 $urx=2.6850 $ury=0.7800 $lvl=3
*|S (n0:8 2.6850 3.8200) // $llx=2.6850 $lly=3.8200 $urx=2.6850 $ury=3.8200 $lvl=3
*|S (n0:9 2.6450 1.4450) // $llx=2.6450 $lly=1.4450 $urx=2.6450 $ury=1.4450 $lvl=3
*|S (n0:10 2.6450 1.3100) // $llx=2.6450 $lly=1.3100 $urx=2.6450 $ury=1.3100 $lvl=3
*|S (n0:11 2.6850 0.2500) // $llx=2.6850 $lly=0.2500 $urx=2.6850 $ury=0.2500 $lvl=3
*|S (n0:12 1.5500 3.6700) // $llx=1.5500 $lly=3.6700 $urx=1.5500 $ury=3.6700 $lvl=2
*|S (n0:13 1.5500 3.4500) // $llx=1.5500 $lly=3.4500 $urx=1.5500 $ury=3.4500 $lvl=2
*|S (n0:15 1.5500 3.2800) // $llx=1.5500 $lly=3.2800 $urx=1.5500 $ury=3.2800 $lvl=2
*|S (n0:16 1.5500 2.8900) // $llx=1.5500 $lly=2.8900 $urx=1.5500 $ury=2.8900 $lvl=2
*|S (n0:17 1.5500 0.8250) // $llx=1.5500 $lly=0.8250 $urx=1.5500 $ury=0.8250 $lvl=2
*|S (n0:19 1.5500 0.6100) // $llx=1.5500 $lly=0.6100 $urx=1.5500 $ury=0.6100 $lvl=2
*|S (n0:20 1.5500 0.5650) // $llx=1.5500 $lly=0.5650 $urx=1.5500 $ury=0.5650 $lvl=2
*|S (n0:21 2.8300 1.4450) // $llx=2.8300 $lly=1.4450 $urx=2.8300 $ury=1.4450 $lvl=2
*|S (n0:22 2.6450 1.4450) // $llx=2.6450 $lly=1.4450 $urx=2.6450 $ury=1.4450 $lvl=2
*|S (n0:23 2.5150 1.4450) // $llx=2.5150 $lly=1.4450 $urx=2.5150 $ury=1.4450 $lvl=2
*|S (n0:24 1.4050 0.5650) // $llx=1.4050 $lly=0.5650 $urx=1.4050 $ury=0.5650 $lvl=1
*|S (n0:25 1.5500 0.5650) // $llx=1.5500 $lly=0.5650 $urx=1.5500 $ury=0.5650 $lvl=1
*|S (n0:26 2.5450 0.5650) // $llx=2.5450 $lly=0.5650 $urx=2.5450 $ury=0.5650 $lvl=1
*|S (n0:27 2.5150 1.3000) // $llx=2.5150 $lly=1.3000 $urx=2.5150 $ury=1.3000 $lvl=1
*|S (n0:28 2.5150 1.4450) // $llx=2.5150 $lly=1.4450 $urx=2.5150 $ury=1.4450 $lvl=1
*|S (n0:29 2.5150 1.5895) // $llx=2.5150 $lly=1.5895 $urx=2.5150 $ury=1.5895 $lvl=1
*|S (n0:30 2.5450 3.4200) // $llx=2.5450 $lly=3.4200 $urx=2.5450 $ury=3.4200 $lvl=1
*|S (n0:31 1.6645 3.4500) // $llx=1.6645 $lly=3.4500 $urx=1.6645 $ury=3.4500 $lvl=1
*|S (n0:32 1.5500 3.4500) // $llx=1.5500 $lly=3.4500 $urx=1.5500 $ury=3.4500 $lvl=1
CH1 Mmn3:d VSS! 1.06471e-18 $lvl=4
CH2 Mmp4:s VSS! 1.28359e-18 $lvl=4
CH3 n0:8 VSS! 1.37946e-18 $lvl=3
CH4 n0:31 VSS! 6.84438e-18 $lvl=1
CH5 n0:29 VSS! 7.04382e-18 $lvl=1
CH6 n0:28 VSS! 5.89804e-18 $lvl=1
CH7 n0:24 VSS! 5.21133e-18 $lvl=1
CH8 n0:30 VSS! 7.63756e-18 $lvl=1
CH9 n0:26 VSS! 5.18494e-18 $lvl=1
CH10 n0:17 VSS! 4.48863e-18 $lvl=2
CH11 n0:12 VSS! 4.61393e-18 $lvl=2
CH12 n0:16 VSS! 5.74114e-18 $lvl=2
CH13 n0:20 VSS! 1.02793e-18 $lvl=2
CH14 n0:13 VSS! 1.54947e-18 $lvl=2
CH15 n0:23 VSS! 6.71857e-18 $lvl=2
CH16 n0:9 VSS! 1.684e-17 $lvl=3
CH17 n0 VSS! 1.95593e-18 $lvl=3
CH18 n0:30 net112:4 1.16596e-18 $lvl1=1 $lvl2=2
CH19 n0:12 Mmp3:s 7.88429e-19 $lvl1=2 $lvl2=4
CH20 n0:26 net145 1.18799e-18 $lvl1=1 $lvl2=2
CH21 n0:24 net145 1.12569e-18 $lvl1=1 $lvl2=2
CH22 n0:20 net145:4 8.60271e-19 $lvl1=2 $lvl2=2
CH23 n0:20 net145 5.74857e-19 $lvl1=2 $lvl2=2
CH24 n0:23 net145 5.44722e-19 $lvl1=2 $lvl2=2
CH25 n0:23 net145:3 4.28789e-19 $lvl1=2 $lvl2=2
CH26 n0:17 Mmn2:d 4.26308e-19 $lvl1=2 $lvl2=4
CH27 n0 net145:3 2.39077e-19 $lvl1=3 $lvl2=2
CH28 n0:17 net145:3 1.87959e-17 $lvl1=2 $lvl2=2
CH29 n0:16 net112:3 3.39036e-18 $lvl1=2 $lvl2=2
CH30 n0:12 net112 8.23887e-18 $lvl1=2 $lvl2=2
CH31 n0:13 net112:3 2.16919e-18 $lvl1=2 $lvl2=2
CH32 n0:30 net112 2.7392e-18 $lvl1=1 $lvl2=2
CH33 n0:31 net112:3 4.67106e-18 $lvl1=1 $lvl2=2
CH34 n0:17 net145 3.55487e-18 $lvl1=2 $lvl2=2
CH35 n0:20 net145:3 2.60607e-18 $lvl1=2 $lvl2=2
CH36 n0:12 net112:4 2.45948e-18 $lvl1=2 $lvl2=2
CH37 n0:26 net145:4 1.44225e-18 $lvl1=1 $lvl2=2
CH38 n0:30 net112:3 4.51324e-18 $lvl1=1 $lvl2=2
CH39 n0:26 net145:3 4.15246e-18 $lvl1=1 $lvl2=2
CH40 n0:24 net145:4 1.97143e-18 $lvl1=1 $lvl2=2
CH41 n0:31 net112 4.1404e-18 $lvl1=1 $lvl2=2
CH42 n0:16 net112:4 4.01583e-18 $lvl1=2 $lvl2=2
CH43 n0:17 net145:4 3.45854e-18 $lvl1=2 $lvl2=2
CH44 n0:12 net112:3 2.41951e-17 $lvl1=2 $lvl2=2
CH45 n0:24 net145:3 5.27994e-18 $lvl1=1 $lvl2=2
CH46 n0:13 net112 1.89804e-18 $lvl1=2 $lvl2=2
CH47 n0 VSS!:8 8.16246e-18 $lvl1=3 $lvl2=2
CH48 n0:28 VSS!:3 5.92839e-18 $lvl1=1 $lvl2=2
CH49 n0:26 VSS!:8 4.99333e-18 $lvl1=1 $lvl2=2
CH50 n0:17 VSS!:5 3.03433e-18 $lvl1=2 $lvl2=2
CH51 n0:20 VSS!:15 2.69698e-18 $lvl1=2 $lvl2=1
CH52 n0:24 VSS!:8 2.61973e-18 $lvl1=1 $lvl2=2
CH53 n0:26 VSS!:5 2.5279e-18 $lvl1=1 $lvl2=2
CH54 n0:24 VSS!:5 2.42665e-18 $lvl1=1 $lvl2=2
CH55 Mmn3:d VSS!:8 2.14685e-18 $lvl1=4 $lvl2=2
CH56 n0:9 Mmn5:s 1.7851e-18 $lvl1=3 $lvl2=4
CH57 n0:20 VSS!:8 1.67093e-18 $lvl1=2 $lvl2=2
CH58 n0:17 VSS!:15 1.4884e-18 $lvl1=2 $lvl2=1
CH59 n0 VSS!:10 1.47602e-18 $lvl1=3 $lvl2=2
CH60 n0:20 VSS!:5 1.34552e-18 $lvl1=2 $lvl2=2
CH61 n0:28 VSS!:15 1.21351e-18 $lvl1=1 $lvl2=1
CH62 n0:24 VSS!:3 1.08245e-18 $lvl1=1 $lvl2=2
CH63 n0 VSS!:3 1.31368e-16 $lvl1=3 $lvl2=2
CH64 n0:9 VSS!:3 1.16475e-17 $lvl1=3 $lvl2=2
CH65 n0:17 VSS!:8 1.92597e-17 $lvl1=2 $lvl2=2
CH66 n0:26 VSS!:3 1.83697e-17 $lvl1=1 $lvl2=2
CH67 n0:26 VSS!:15 4.77972e-17 $lvl1=1 $lvl2=1
CH68 n0:23 VSS!:3 1.89735e-17 $lvl1=2 $lvl2=2
CH69 n0:24 VSS!:15 5.65802e-17 $lvl1=1 $lvl2=1
ReH162 n0:24 n0:25 0.078804 $metal1  $L=0.145 $W=0.230000 $SI_W=0.23 $TYPE=10 $DIR=0 $LLX=1.405000 $LLY=0.450000 $URX=1.550000 $URY=0.680000 $lvl=1
ReH163 n0:25 n0:26 0.540897 $metal1  $L=0.99525 $W=0.230000 $SI_W=0.23 $TYPE=10 $DIR=0 $LLX=1.550000 $LLY=0.450000 $URX=2.545000 $URY=0.680000 $lvl=1
ReH164 n0:26 n0:27 0.540393 $metal1  $L=0.73475 $W=0.170000 $SI_W=0.17 $TYPE=10 $DIR=1 $LLX=2.460000 $LLY=0.565000 $URX=2.630000 $URY=1.300000 $lvl=1
ReH165 n0:27 n0:28 0.087429 $metal1  $L=0.1445 $W=0.230000 $SI_W=0.23 $TYPE=10 $DIR=1 $LLX=2.400000 $LLY=1.300500 $URX=2.630000 $URY=1.445000 $lvl=1
ReH166 n0:28 n0:29 0.078668 $metal1  $L=0.1445 $W=0.230000 $SI_W=0.23 $TYPE=10 $DIR=1 $LLX=2.400000 $LLY=1.445000 $URX=2.630000 $URY=1.589500 $lvl=1
ReH167 n0:29 n0:30 1.345908 $metal1  $L=1.83025 $W=0.170000 $SI_W=0.17 $TYPE=10 $DIR=1 $LLX=2.460000 $LLY=1.590000 $URX=2.630000 $URY=3.420000 $lvl=1
ReH168 n0:30 n0:31 0.478505 $metal1  $L=0.88025 $W=0.230000 $SI_W=0.23 $TYPE=10 $DIR=0 $LLX=1.665000 $LLY=3.305000 $URX=2.545000 $URY=3.535000 $lvl=1
ReH169 n0:31 n0:32 0.053985 $metal1  $L=0.1145 $W=0.290000 $SI_W=0.29 $TYPE=10 $DIR=0 $LLX=1.550000 $LLY=3.305000 $URX=1.664500 $URY=3.595000 $lvl=1
RfH170 n0:12 n0:13 16.564707 $li  $L=0.22 $W=0.170000 $SI_W=0.17 $TYPE=10 $DIR=1 $LLX=1.465000 $LLY=3.450000 $URX=1.635000 $URY=3.670000 $lvl=2
RfH171 n0:13 n0:15 12.800000 $li  $L=0.17 $W=0.170000 $SI_W=0.17 $TYPE=10 $DIR=1 $LLX=1.465000 $LLY=3.280000 $URX=1.635000 $URY=3.450000 $lvl=2
RfH172 n0:15 n0:16 29.364706 $li  $L=0.39 $W=0.170000 $SI_W=0.17 $TYPE=10 $DIR=1 $LLX=1.465000 $LLY=2.890000 $URX=1.635000 $URY=3.280000 $lvl=2
RfH173 n0:17 n0:19 16.188236 $li  $L=0.215 $W=0.170000 $SI_W=0.17 $TYPE=10 $DIR=1 $LLX=1.465000 $LLY=0.610000 $URX=1.635000 $URY=0.825000 $lvl=2
RfH174 n0:19 n0:20 3.388236 $li  $L=0.045 $W=0.170000 $SI_W=0.17 $TYPE=10 $DIR=1 $LLX=1.465000 $LLY=0.565000 $URX=1.635000 $URY=0.610000 $lvl=2
RfH175 n0:21 n0:22 13.929413 $li  $L=0.185 $W=0.170000 $SI_W=0.17 $TYPE=10 $DIR=0 $LLX=2.645000 $LLY=1.360000 $URX=2.830000 $URY=1.530000 $lvl=2
RfH176 n0:22 n0:23 9.788236 $li  $L=0.13 $W=0.170000 $SI_W=0.17 $TYPE=10 $DIR=0 $LLX=2.515000 $LLY=1.360000 $URX=2.645000 $URY=1.530000 $lvl=2
RgH177 n0:8 Mmp5:g 282.773346 $poly  $L=0.88 $W=0.150000 $SI_W=0.15 $TYPE=10 $DIR=1 $LLX=2.610000 $LLY=2.940000 $URX=2.760000 $URY=3.820000 $lvl=3
RgH178 Mmp5:g n0:9 462.663391 $poly  $L=1.495 $W=0.150000 $SI_W=0.15 $TYPE=10 $DIR=1 $LLX=2.610000 $LLY=1.445000 $URX=2.760000 $URY=2.940000 $lvl=3
RgH179 n0:9 n0:10 25.613562 $poly  $L=0.1345 $W=0.330000 $SI_W=0.33 $TYPE=10 $DIR=1 $LLX=2.480000 $LLY=1.310500 $URX=2.810000 $URY=1.445000 $lvl=3
RgH180 n0:10 n0 170.343185 $poly  $L=0.53 $W=0.150000 $SI_W=0.15 $TYPE=10 $DIR=1 $LLX=2.610000 $LLY=0.780000 $URX=2.760000 $URY=1.310000 $lvl=3
RgH181 n0 n0:11 170.306671 $poly  $L=0.53 $W=0.150000 $SI_W=0.15 $TYPE=10 $DIR=1 $LLX=2.610000 $LLY=0.250000 $URX=2.760000 $URY=0.780000 $lvl=3
RhH182 Mmn3:d n0:19 15.000000 $licon_diff  $L=0.17 $W=0.17 $A=0.0289 $VC=0 $SAVL=0 $SAVC=0 $SI_A=0.0289 $COVER_DIR=0 $LLX=0.000000 $LLY=0.000000 $URX=0.170000 $URY=0.170000 $lvl=5
Rh_2_H183 Mmp4:s n0:15 7.500000 $licon_diff  $A=0.0578 $VC=0 $SAVL=0 $SAVC=0 $SI_A=0.0578 $COVER_DIR=0 $LLX=0.000000 $LLY=0.000000 $URX=-0.057800 $URY=-2.000000 $lvl=5
RjH184 n0:20 n0:25 152.000000 $mcon  $L=0.17 $W=0.17 $A=0.0289 $VC=0 $SAVL=0 $SAVC=0 $SI_A=0.0289 $COVER_DIR=0 $LLX=0.000000 $LLY=0.000000 $URX=0.170000 $URY=0.170000 $lvl=6
RjH185 n0:23 n0:28 152.000000 $mcon  $L=0.17 $W=0.17 $A=0.0289 $VC=0 $SAVL=0 $SAVC=0 $SI_A=0.0289 $COVER_DIR=0 $LLX=0.000000 $LLY=0.000000 $URX=0.170000 $URY=0.170000 $lvl=6
RjH186 n0:13 n0:32 152.000000 $mcon  $L=0.17 $W=0.17 $A=0.0289 $VC=0 $SAVL=0 $SAVC=0 $SI_A=0.0289 $COVER_DIR=0 $LLX=0.000000 $LLY=0.000000 $URX=0.170000 $URY=0.170000 $lvl=6
RiH187 n0:9 n0:22 15.000000 $licon  $L=0.17 $W=0.17 $A=0.0289 $VC=0 $SAVL=0 $SAVC=0 $SI_A=0.0289 $COVER_DIR=0 $LLX=0.000000 $LLY=0.000000 $URX=0.170000 $URY=0.170000 $lvl=7
RmwH188 Mmp3:d Mmp4:s 0.001000 $diff $W=1000000 $SI_W=1000000 $TYPE=1 $DIR=0
RmwH189 Mmn5:g n0 0.001000 $poly $W=1000000 $SI_W=1000000 $TYPE=1 $DIR=0
RmwH190 Mmn4:d Mmn3:d 0.001000 $diff $W=1000000 $SI_W=1000000 $TYPE=1 $DIR=0
*
*|NET VDD! 2.19736e-15
*|P (VDD! X 0 1.6500 4.1450) // $llx=1.6500 $lly=4.1450 $urx=1.6500 $ury=4.1450 $lvl=1
*|I (Mmp4:b Mmp4 b X 0 1.3350 3.2800) // $llx=1.3350 $lly=3.2800 $urx=1.3350 $ury=3.2800 $lvl=8
*|I (Mmp3:b Mmp3 b X 0 1.7650 3.2800) // $llx=1.7650 $lly=3.2800 $urx=1.7650 $ury=3.2800 $lvl=8
*|I (Mmp5:s Mmp5 s X 0 2.6095 2.9400) // $llx=2.6095 $lly=2.9400 $urx=2.6095 $ury=2.9400 $lvl=4
*|I (Mmp5:b Mmp5 b X 0 2.6850 2.9400) // $llx=2.6850 $lly=2.9400 $urx=2.6850 $ury=2.9400 $lvl=8
*|I (Mmp1:s Mmp1 s X 0 0.5505 3.2800) // $llx=0.5505 $lly=3.2800 $urx=0.5505 $ury=3.2800 $lvl=4
*|I (Mmp1:b Mmp1 b X 0 0.4750 3.2800) // $llx=0.4750 $lly=3.2800 $urx=0.4750 $ury=3.2800 $lvl=8
*|I (Mmp0:s Mmp0 s X 0 0.8295 3.2800) // $llx=0.8295 $lly=3.2800 $urx=0.8295 $ury=3.2800 $lvl=4
*|I (Mmp0:b Mmp0 b X 0 0.9050 3.2800) // $llx=0.9050 $lly=3.2800 $urx=0.9050 $ury=3.2800 $lvl=8
*|I (Mmp2:s Mmp2 s X 0 2.2705 3.2800) // $llx=2.2705 $lly=3.2800 $urx=2.2705 $ury=3.2800 $lvl=4
*|I (Mmp2:b Mmp2 b X 0 2.1950 3.2800) // $llx=2.1950 $lly=3.2800 $urx=2.1950 $ury=3.2800 $lvl=8
*|S (VDD!:1 0.6900 2.8900) // $llx=0.6900 $lly=2.8900 $urx=0.6900 $ury=2.8900 $lvl=2
*|S (VDD!:3 0.6900 3.2800) // $llx=0.6900 $lly=3.2800 $urx=0.6900 $ury=3.2800 $lvl=2
*|S (VDD!:4 0.6900 4.1400) // $llx=0.6900 $lly=4.1400 $urx=0.6900 $ury=4.1400 $lvl=2
*|S (VDD!:5 0.0000 4.1400) // $llx=0.0000 $lly=4.1400 $urx=0.0000 $ury=4.1400 $lvl=2
*|S (VDD!:6 1.8400 4.1400) // $llx=1.8400 $lly=4.1400 $urx=1.8400 $ury=4.1400 $lvl=2
*|S (VDD!:7 1.8400 4.1400) // $llx=1.8400 $lly=4.1400 $urx=1.8400 $ury=4.1400 $lvl=4
*|S (VDD!:9 2.4700 4.1400) // $llx=2.4700 $lly=4.1400 $urx=2.4700 $ury=4.1400 $lvl=2
*|S (VDD!:11 2.4700 2.9400) // $llx=2.4700 $lly=2.9400 $urx=2.4700 $ury=2.9400 $lvl=2
*|S (VDD!:12 2.4700 2.2100) // $llx=2.4700 $lly=2.2100 $urx=2.4700 $ury=2.2100 $lvl=2
*|S (VDD!:13 3.6795 4.1400) // $llx=3.6795 $lly=4.1400 $urx=3.6795 $ury=4.1400 $lvl=2
*|S (VDD!:14 3.6800 4.1400) // $llx=3.6800 $lly=4.1400 $urx=3.6800 $ury=4.1400 $lvl=1
*|S (VDD!:15 1.8400 4.1400) // $llx=1.8400 $lly=4.1400 $urx=1.8400 $ury=4.1400 $lvl=1
*|S (VDD!:16 0.0000 4.1400) // $llx=0.0000 $lly=4.1400 $urx=0.0000 $ury=4.1400 $lvl=1
CD1 Mmp1:s VSS! 2.27126e-18 $lvl=4
CD2 Mmp5:s VSS! 2.76025e-18 $lvl=4
CD3 VDD!:15 VSS! 1.42309e-17 $lvl=1
CD4 VDD!:14 VSS! 5.70795e-18 $lvl=1
CD5 VDD!:16 VSS! 7.23326e-18 $lvl=1
CD6 VDD!:11 VSS! 5.15913e-18 $lvl=2
CD7 VDD!:3 VSS! 6.58554e-18 $lvl=2
CD8 VDD!:13 VSS! 4.07125e-18 $lvl=2
CD9 VDD!:4 VSS! 3.41725e-18 $lvl=2
CD10 VDD!:5 VSS! 3.84004e-18 $lvl=2
CD11 VDD!:7 VSS! 1.94054e-18 $lvl=4
CD12 VDD!:6 VSS! 3.8849e-18 $lvl=2
CD13 VDD! VSS! 6.59163e-18 $lvl=1
CD14 VDD!:15 net112 1.41053e-18 $lvl1=1 $lvl2=2
CD15 VDD!:6 net112 8.80836e-19 $lvl1=2 $lvl2=2
CD16 VDD! net112:3 6.05166e-19 $lvl1=1 $lvl2=2
CD17 VDD!:15 net112:3 4.62135e-19 $lvl1=1 $lvl2=2
CD18 VDD!:4 Mmp3:s 1.7213e-18 $lvl1=2 $lvl2=4
CD19 VDD!:4 net112:3 1.66369e-18 $lvl1=2 $lvl2=2
CD20 VDD!:11 net112:4 8.9139e-18 $lvl1=2 $lvl2=2
CD21 VDD!:4 net112 4.98762e-18 $lvl1=2 $lvl2=2
CD22 VDD!:11 Mmp3:s 1.49834e-18 $lvl1=2 $lvl2=4
CD23 VDD!:11 net112:3 2.43462e-17 $lvl1=2 $lvl2=2
CD24 VDD!:11 net112 7.54954e-18 $lvl1=2 $lvl2=2
CD25 VDD!:11 n0:29 9.39244e-18 $lvl1=2 $lvl2=1
CD26 VDD!:4 n0:8 6.06877e-18 $lvl1=2 $lvl2=3
CD27 VDD! n0:26 5.79656e-18 $lvl1=1 $lvl2=1
CD28 VDD! n0:31 5.46112e-18 $lvl1=1 $lvl2=1
CD29 VDD! n0:29 5.4421e-18 $lvl1=1 $lvl2=1
CD30 VDD! n0:24 5.05444e-18 $lvl1=1 $lvl2=1
CD31 VDD!:4 n0:30 4.04969e-18 $lvl1=2 $lvl2=1
CD32 VDD!:15 n0:12 3.36475e-18 $lvl1=1 $lvl2=2
CD33 VDD! n0:28 3.20815e-18 $lvl1=1 $lvl2=1
CD34 VDD!:4 n0:31 3.18905e-18 $lvl1=2 $lvl2=1
CD35 VDD! n0:12 2.58773e-18 $lvl1=1 $lvl2=2
CD36 VDD! n0:9 2.49438e-18 $lvl1=1 $lvl2=3
CD37 VDD!:14 n0:30 1.96205e-18 $lvl1=1 $lvl2=1
CD38 VDD! n0:23 1.79599e-18 $lvl1=1 $lvl2=2
CD39 VDD!:11 n0:31 1.783e-18 $lvl1=2 $lvl2=1
CD40 VDD!:6 n0:30 1.59631e-18 $lvl1=2 $lvl2=1
CD41 VDD!:15 n0:13 1.59016e-18 $lvl1=1 $lvl2=2
CD42 VDD!:11 n0:9 1.29475e-18 $lvl1=2 $lvl2=3
CD43 VDD!:4 Mmp4:s 1.26547e-18 $lvl1=2 $lvl2=4
CD44 VDD!:11 n0:12 1.26094e-18 $lvl1=2 $lvl2=2
CD45 VDD!:6 n0:31 1.16354e-18 $lvl1=2 $lvl2=1
CD46 VDD!:6 n0:12 1.12158e-18 $lvl1=2 $lvl2=2
CD47 VDD!:11 n0:23 1.09817e-18 $lvl1=2 $lvl2=2
CD48 VDD!:4 n0:13 9.96805e-19 $lvl1=2 $lvl2=2
CD49 VDD!:7 n0:12 9.90795e-19 $lvl1=4 $lvl2=2
CD50 VDD!:15 n0:29 8.93305e-19 $lvl1=1 $lvl2=1
CD51 VDD!:13 n0:8 8.28073e-19 $lvl1=2 $lvl2=3
CD52 VDD!:15 n0:31 3.93697e-17 $lvl1=1 $lvl2=1
CD53 VDD! n0:30 1.30648e-17 $lvl1=1 $lvl2=1
CD54 VDD!:11 n0:8 2.53892e-16 $lvl1=2 $lvl2=3
CD55 VDD!:15 n0:30 4.1526e-17 $lvl1=1 $lvl2=1
CD56 VDD!:11 n0:30 3.98006e-17 $lvl1=2 $lvl2=1
CD57 VDD!:4 n0:12 1.91646e-17 $lvl1=2 $lvl2=2
CD58 VDD!:16 n2:18 8.02187e-18 $lvl1=1 $lvl2=2
CD59 VDD!:4 n2:8 7.36852e-18 $lvl1=2 $lvl2=3
CD60 VDD!:15 n2:18 7.07853e-18 $lvl1=1 $lvl2=2
CD61 VDD! n2:10 6.25159e-18 $lvl1=1 $lvl2=3
CD62 VDD! n2:31 5.12371e-18 $lvl1=1 $lvl2=1
CD63 VDD! n2:29 3.94838e-18 $lvl1=1 $lvl2=1
CD64 VDD! n2:28 3.70527e-18 $lvl1=1 $lvl2=1
CD65 VDD! n2:30 2.94634e-18 $lvl1=1 $lvl2=1
CD66 VDD!:3 n2:21 2.69634e-18 $lvl1=2 $lvl2=2
CD67 VDD!:7 n2:18 2.57133e-18 $lvl1=4 $lvl2=2
CD68 VDD! n2:17 2.36126e-18 $lvl1=1 $lvl2=2
CD69 VDD!:6 n2:18 1.12812e-18 $lvl1=2 $lvl2=2
CD70 VDD!:4 Mmp1:d 1.12406e-18 $lvl1=2 $lvl2=4
CD71 VDD!:15 n2:31 8.76839e-19 $lvl1=1 $lvl2=1
CD72 VDD!:5 n2:18 1.07563e-17 $lvl1=2 $lvl2=2
CD73 VDD! n2:27 1.33623e-17 $lvl1=1 $lvl2=1
CD74 VDD!:3 n2:18 6.00499e-17 $lvl1=2 $lvl2=2
CD75 VDD! n2:18 4.89776e-17 $lvl1=1 $lvl2=2
CD76 VDD! n2:21 2.81532e-17 $lvl1=1 $lvl2=2
CD77 VDD! n2:14 1.42773e-17 $lvl1=1 $lvl2=2
CD78 VDD!:4 n2:18 1.22319e-17 $lvl1=2 $lvl2=2
CD79 VDD!:11 n1:29 9.81977e-18 $lvl1=2 $lvl2=1
CD80 VDD!:4 n1:8 8.83422e-18 $lvl1=2 $lvl2=3
CD81 VDD! n1:28 8.27639e-18 $lvl1=1 $lvl2=1
CD82 VDD! n1:31 7.98267e-18 $lvl1=1 $lvl2=1
CD83 VDD! n1:29 7.78018e-18 $lvl1=1 $lvl2=1
CD84 VDD!:3 n1:17 7.17996e-18 $lvl1=2 $lvl2=2
CD85 VDD!:3 n1:28 6.38036e-18 $lvl1=2 $lvl2=1
CD86 VDD!:11 n1:31 5.73566e-18 $lvl1=2 $lvl2=1
CD87 VDD! n1:32 5.46421e-18 $lvl1=1 $lvl2=1
CD88 VDD! n1:26 5.388e-18 $lvl1=1 $lvl2=1
CD89 VDD!:3 n1:26 5.27295e-18 $lvl1=2 $lvl2=1
CD90 VDD! n1:10 4.88598e-18 $lvl1=1 $lvl2=3
CD91 VDD!:15 n1:28 4.62367e-18 $lvl1=1 $lvl2=1
CD92 VDD!:15 n1:29 3.73762e-18 $lvl1=1 $lvl2=1
CD93 VDD!:3 n1:14 3.51477e-18 $lvl1=2 $lvl2=2
CD94 VDD!:15 n1:13 3.46881e-18 $lvl1=1 $lvl2=2
CD95 VDD! n1:33 3.07374e-18 $lvl1=1 $lvl2=1
CD96 Mmp5:s n1:10 2.38449e-18 $lvl1=4 $lvl2=3
CD97 VDD! n1:35 2.25764e-18 $lvl1=1 $lvl2=1
CD98 VDD!:15 n1:14 2.19117e-18 $lvl1=1 $lvl2=2
CD99 VDD!:4 n1:26 2.15182e-18 $lvl1=2 $lvl2=1
CD100 VDD! n1:13 2.02325e-18 $lvl1=1 $lvl2=2
CD101 VDD!:11 n1:25 1.92845e-18 $lvl1=2 $lvl2=2
CD102 VDD!:16 n1:26 1.84923e-18 $lvl1=1 $lvl2=1
CD103 VDD!:4 n1:14 1.5377e-18 $lvl1=2 $lvl2=2
CD104 VDD!:4 Mmp4:d 1.27744e-18 $lvl1=2 $lvl2=4
CD105 VDD!:16 n1:28 1.22753e-18 $lvl1=1 $lvl2=1
CD106 VDD!:6 n1:13 1.18283e-18 $lvl1=2 $lvl2=2
CD107 VDD!:15 n1:31 1.03698e-18 $lvl1=1 $lvl2=1
CD108 VDD!:7 n1:13 9.13797e-19 $lvl1=4 $lvl2=2
CD109 VDD! n1:17 8.97431e-19 $lvl1=1 $lvl2=2
CD110 VDD!:3 n1:13 4.47156e-17 $lvl1=2 $lvl2=2
CD111 VDD!:4 n1:13 1.94989e-17 $lvl1=2 $lvl2=2
CD112 VDD!:15 n1:26 3.0754e-17 $lvl1=1 $lvl2=1
CD113 VDD!:11 n1:23 1.6709e-17 $lvl1=2 $lvl2=2
CD114 VDD!:11 n1:10 1.19979e-17 $lvl1=2 $lvl2=3
CD115 VDD!:11 n1:8 7.13918e-17 $lvl1=2 $lvl2=3
CD116 VDD! VSS!:5 9.57152e-18 $lvl1=1 $lvl2=2
CD117 VDD! VSS!:10 3.05062e-17 $lvl1=1 $lvl2=2
CD118 VDD! VSS!:8 6.75624e-17 $lvl1=1 $lvl2=2
CD119 VDD! VSS!:15 1.0715e-16 $lvl1=1 $lvl2=1
CD120 VDD! VSS!:9 1.55512e-17 $lvl1=1 $lvl2=2
CD121 VDD! VSS!:14 3.4939e-17 $lvl1=1 $lvl2=1
CD122 VDD! VSS!:16 3.18194e-17 $lvl1=1 $lvl2=1
ReD56 VDD!:14 VDD!:15 0.575000 $metal1  $L=1.84 $W=0.400000 $SI_W=0.4 $TYPE=10 $DIR=0 $LLX=1.840000 $LLY=3.940000 $URX=3.680000 $URY=4.340000 $lvl=1
ReD57 VDD!:15 VDD! 0.059375 $metal1  $L=0.19 $W=0.400000 $SI_W=0.4 $TYPE=10 $DIR=0 $LLX=1.650000 $LLY=3.940000 $URX=1.840000 $URY=4.340000 $lvl=1
ReD58 VDD! VDD!:16 0.515625 $metal1  $L=1.65 $W=0.400000 $SI_W=0.4 $TYPE=10 $DIR=0 $LLX=0.000000 $LLY=3.940000 $URX=1.650000 $URY=4.340000 $lvl=1
RfD59 VDD!:1 VDD!:3 29.364706 $li  $L=0.39 $W=0.170000 $SI_W=0.17 $TYPE=10 $DIR=1 $LLX=0.605000 $LLY=2.890000 $URX=0.775000 $URY=3.280000 $lvl=2
RfD60 VDD!:3 VDD!:4 61.753979 $li  $L=0.86025 $W=0.170000 $SI_W=0.17 $TYPE=10 $DIR=1 $LLX=0.605000 $LLY=3.280000 $URX=0.775000 $URY=4.140000 $lvl=2
RfD61 VDD!:4 VDD!:5 35.340801 $li  $L=0.69025 $W=0.250000 $SI_W=0.25 $TYPE=10 $DIR=0 $LLX=0.000000 $LLY=4.015000 $URX=0.690000 $URY=4.265000 $lvl=2
RfD62 VDD!:4 VDD!:6 58.867199 $li  $L=1.14975 $W=0.250000 $SI_W=0.25 $TYPE=10 $DIR=0 $LLX=0.690000 $LLY=4.015000 $URX=1.840000 $URY=4.265000 $lvl=2
RfD63 VDD!:6 VDD!:9 32.268803 $li  $L=0.63025 $W=0.250000 $SI_W=0.25 $TYPE=10 $DIR=0 $LLX=1.840000 $LLY=4.015000 $URX=2.470000 $URY=4.265000 $lvl=2
RfD64 VDD!:9 VDD!:11 87.353973 $li  $L=1.20025 $W=0.170000 $SI_W=0.17 $TYPE=10 $DIR=1 $LLX=2.385000 $LLY=2.940000 $URX=2.555000 $URY=4.140000 $lvl=2
RfD65 VDD!:11 VDD!:12 54.964703 $li  $L=0.73 $W=0.170000 $SI_W=0.17 $TYPE=10 $DIR=1 $LLX=2.385000 $LLY=2.210000 $URX=2.555000 $URY=2.940000 $lvl=2
RfD66 VDD!:9 VDD!:13 61.913601 $li  $L=1.20925 $W=0.250000 $SI_W=0.25 $TYPE=10 $DIR=0 $LLX=2.470000 $LLY=4.015000 $URX=3.679000 $URY=4.265000 $lvl=2
Rh_1_D67 VDD!:7 VDD!:6 2.142857 $licon_diff  $A=0.2023 $VC=0 $SAVL=0 $SAVC=0 $SI_A=0.2023 $COVER_DIR=0 $LLX=0.000000 $LLY=0.000000 $URX=-0.202300 $URY=-7.000000 $lvl=5
Rh_2_D68 Mmp1:s VDD!:3 7.500000 $licon_diff  $A=0.0578 $VC=0 $SAVL=0 $SAVC=0 $SI_A=0.0578 $COVER_DIR=0 $LLX=0.000000 $LLY=0.000000 $URX=-0.057800 $URY=-2.000000 $lvl=5
Rh_2_D69 Mmp5:s VDD!:11 3.750000 $licon_diff  $A=0.1156 $VC=0 $SAVL=0 $SAVC=0 $SI_A=0.1156 $COVER_DIR=0 $LLX=0.000000 $LLY=0.000000 $URX=-0.115600 $URY=-4.000000 $lvl=5
RjD70 VDD!:6 VDD!:15 21.714285 $mcon  $A=0.2023 $VC=0 $SAVL=0 $SAVC=0 $SI_A=0.2023 $COVER_DIR=0 $LLX=0.000000 $LLY=0.000000 $URX=-0.202300 $URY=-7.000000 $lvl=6
RmwD71 Mmp4:b VDD! 0.001000 $FOX $W=1000000 $SI_W=1000000 $TYPE=1 $DIR=0
RmwD72 Mmp3:b VDD! 0.001000 $FOX $W=1000000 $SI_W=1000000 $TYPE=1 $DIR=0
RmwD73 Mmp5:b VDD! 0.001000 $FOX $W=1000000 $SI_W=1000000 $TYPE=1 $DIR=0
RmwD74 Mmp1:b VDD! 0.001000 $FOX $W=1000000 $SI_W=1000000 $TYPE=1 $DIR=0
RmwD75 Mmp0:s Mmp1:s 0.001000 $diff $W=1000000 $SI_W=1000000 $TYPE=1 $DIR=0
RmwD76 Mmp0:b VDD! 0.001000 $FOX $W=1000000 $SI_W=1000000 $TYPE=1 $DIR=0
RmwD77 Mmp2:s Mmp5:s 0.001000 $diff $W=1000000 $SI_W=1000000 $TYPE=1 $DIR=0
RmwD78 Mmp2:b VDD! 0.001000 $FOX $W=1000000 $SI_W=1000000 $TYPE=1 $DIR=0
*
*|NET B 1.64384e-15
*|P (B X 0 0.4750 1.2750) // $llx=0.4750 $lly=1.2750 $urx=0.4750 $ury=1.2750 $lvl=1
*|I (Mmp3:g Mmp3 g X 0 1.7650 3.2800) // $llx=1.7650 $lly=3.2800 $urx=1.7650 $ury=3.2800 $lvl=3
*|I (Mmp1:g Mmp1 g X 0 0.4750 3.2800) // $llx=0.4750 $lly=3.2800 $urx=0.4750 $ury=3.2800 $lvl=3
*|I (Mmn1:g Mmn1 g X 0 0.4750 0.6125) // $llx=0.4750 $lly=0.6125 $urx=0.4750 $ury=0.6125 $lvl=3
*|I (Mmn4:g Mmn4 g X 0 1.3350 0.6125) // $llx=1.3350 $lly=0.6125 $urx=1.3350 $ury=0.6125 $lvl=3
*|S (B:15 0.4750 3.8200) // $llx=0.4750 $lly=3.8200 $urx=0.4750 $ury=3.8200 $lvl=3
*|S (B:16 0.4150 1.3045) // $llx=0.4150 $lly=1.3045 $urx=0.4150 $ury=1.3045 $lvl=3
*|S (B:17 0.4150 1.1400) // $llx=0.4150 $lly=1.1400 $urx=0.4150 $ury=1.1400 $lvl=3
*|S (B:18 0.4150 0.9750) // $llx=0.4150 $lly=0.9750 $urx=0.4150 $ury=0.9750 $lvl=3
*|S (B:19 0.4750 0.2500) // $llx=0.4750 $lly=0.2500 $urx=0.4750 $ury=0.2500 $lvl=3
*|S (B:20 1.3350 0.2500) // $llx=1.3350 $lly=0.2500 $urx=1.3350 $ury=0.2500 $lvl=3
*|S (B:21 1.3350 0.9750) // $llx=1.3350 $lly=0.9750 $urx=1.3350 $ury=0.9750 $lvl=3
*|S (B:22 1.3350 1.1400) // $llx=1.3350 $lly=1.1400 $urx=1.3350 $ury=1.1400 $lvl=3
*|S (B:23 1.7650 3.8200) // $llx=1.7650 $lly=3.8200 $urx=1.7650 $ury=3.8200 $lvl=3
*|S (B:24 1.7650 2.5645) // $llx=1.7650 $lly=2.5645 $urx=1.7650 $ury=2.5645 $lvl=3
*|S (B:25 1.7650 2.4000) // $llx=1.7650 $lly=2.4000 $urx=1.7650 $ury=2.4000 $lvl=3
*|S (B:26 1.7650 2.5650) // $llx=1.7650 $lly=2.5650 $urx=1.7650 $ury=2.5650 $lvl=2
*|S (B:27 1.7650 2.4000) // $llx=1.7650 $lly=2.4000 $urx=1.7650 $ury=2.4000 $lvl=2
*|S (B:28 1.7650 1.1400) // $llx=1.7650 $lly=1.1400 $urx=1.7650 $ury=1.1400 $lvl=2
*|S (B:29 1.3350 1.1400) // $llx=1.3350 $lly=1.1400 $urx=1.3350 $ury=1.1400 $lvl=2
*|S (B:30 0.4600 1.1400) // $llx=0.4600 $lly=1.1400 $urx=0.4600 $ury=1.1400 $lvl=2
*|S (B:31 0.4150 1.1400) // $llx=0.4150 $lly=1.1400 $urx=0.4150 $ury=1.1400 $lvl=2
*|S (B:32 0.2200 1.1400) // $llx=0.2200 $lly=1.1400 $urx=0.2200 $ury=1.1400 $lvl=2
*|S (B:33 0.4600 2.1350) // $llx=0.4600 $lly=2.1350 $urx=0.4600 $ury=2.1350 $lvl=1
*|S (B:34 0.4600 1.1400) // $llx=0.4600 $lly=1.1400 $urx=0.4600 $ury=1.1400 $lvl=1
*|S (B:35 0.4600 0.8950) // $llx=0.4600 $lly=0.8950 $urx=0.4600 $ury=0.8950 $lvl=1
CB1 B:23 VSS! 2.36298e-18 $lvl=3
CB2 B:20 VSS! 1.52526e-18 $lvl=3
CB3 B:15 VSS! 1.53909e-18 $lvl=3
CB4 B:19 VSS! 1.65629e-18 $lvl=3
CB5 B:33 VSS! 1.07816e-17 $lvl=1
CB6 B:35 VSS! 2.9098e-18 $lvl=1
CB7 B:31 VSS! 5.55213e-18 $lvl=2
CB8 B:29 VSS! 4.93429e-18 $lvl=2
CB9 B:26 VSS! 6.14229e-18 $lvl=2
CB10 B:32 VSS! 4.24165e-18 $lvl=2
CB11 B:28 VSS! 1.05402e-17 $lvl=2
CB12 B:30 VSS! 2.43503e-18 $lvl=2
CB13 B:17 VSS! 1.88421e-17 $lvl=3
CB14 B:22 VSS! 1.95124e-17 $lvl=3
CB15 B:25 VSS! 8.17073e-18 $lvl=3
CB16 B:26 net112:3 1.23497e-18 $lvl1=2 $lvl2=2
CB17 B:25 net112:3 1.16084e-18 $lvl1=3 $lvl2=2
CB18 B:23 net112:4 1.08215e-18 $lvl1=3 $lvl2=2
CB19 B:22 net145:3 7.04138e-19 $lvl1=3 $lvl2=2
CB20 B:22 net145 3.55714e-19 $lvl1=3 $lvl2=2
CB21 B:20 net145:3 3.54397e-19 $lvl1=3 $lvl2=2
CB22 B:29 net145:3 3.4683e-19 $lvl1=2 $lvl2=2
CB23 B:23 net112:3 6.70703e-17 $lvl1=3 $lvl2=2
CB24 B:23 net112 1.57067e-18 $lvl1=3 $lvl2=2
CB25 B:25 net112:4 2.09403e-18 $lvl1=3 $lvl2=2
CB26 B:28 net145 6.4765e-18 $lvl1=2 $lvl2=2
CB27 B:28 net145:3 3.67488e-18 $lvl1=2 $lvl2=2
CB28 B:26 net112:4 4.54832e-18 $lvl1=2 $lvl2=2
CB29 B:22 n0:17 7.37938e-18 $lvl1=3 $lvl2=2
CB30 B:29 n0:17 7.25381e-18 $lvl1=2 $lvl2=2
CB31 B:28 n0:23 5.04431e-18 $lvl1=2 $lvl2=2
CB32 B:26 n0:16 3.89816e-18 $lvl1=2 $lvl2=2
CB33 B:25 n0:12 2.51313e-18 $lvl1=3 $lvl2=2
CB34 B:25 n0:16 1.94412e-18 $lvl1=3 $lvl2=2
CB35 B:26 n0:12 1.47574e-18 $lvl1=2 $lvl2=2
CB36 B:28 n0:9 1.2739e-18 $lvl1=2 $lvl2=3
CB37 B:22 Mmn3:d 1.0006e-18 $lvl1=3 $lvl2=4
CB38 B:23 n0:16 9.18336e-19 $lvl1=3 $lvl2=2
CB39 B:28 n0:20 7.38237e-19 $lvl1=2 $lvl2=2
CB40 B:29 n0:20 7.05861e-19 $lvl1=2 $lvl2=2
CB41 B:28 n0:28 6.48381e-19 $lvl1=2 $lvl2=1
CB42 B:25 Mmp4:s 6.28526e-19 $lvl1=3 $lvl2=4
CB43 B:28 n0:24 6.02397e-19 $lvl1=2 $lvl2=1
CB44 B:28 n0:26 5.54695e-19 $lvl1=2 $lvl2=1
CB45 B:20 n0:17 6.76931e-17 $lvl1=3 $lvl2=2
CB46 B:23 n0:12 1.30546e-16 $lvl1=3 $lvl2=2
CB47 B:28 n0:17 9.02985e-18 $lvl1=2 $lvl2=2
CB48 B:32 n2:14 6.9665e-18 $lvl1=2 $lvl2=2
CB49 B:33 n2:27 6.3248e-18 $lvl1=1 $lvl2=1
CB50 B:29 n2:29 5.65212e-18 $lvl1=2 $lvl2=1
CB51 B:28 n2:30 5.59377e-18 $lvl1=2 $lvl2=1
CB52 B:31 n2:29 5.35893e-18 $lvl1=2 $lvl2=1
CB53 B:17 n2:21 5.10333e-18 $lvl1=3 $lvl2=2
CB54 B:26 n2:31 5.07766e-18 $lvl1=2 $lvl2=1
CB55 B:26 n2:25 4.86629e-18 $lvl1=2 $lvl2=2
CB56 B:33 n2:18 4.77043e-18 $lvl1=1 $lvl2=2
CB57 B:29 n2:21 4.72161e-18 $lvl1=2 $lvl2=2
CB58 B:26 n2:10 4.55208e-18 $lvl1=2 $lvl2=3
CB59 B:30 n2:14 4.48557e-18 $lvl1=2 $lvl2=2
CB60 B:28 n2:31 4.4558e-18 $lvl1=2 $lvl2=1
CB61 B:31 n2:21 4.29024e-18 $lvl1=2 $lvl2=2
CB62 B:25 n2:10 4.07434e-18 $lvl1=3 $lvl2=3