*
*|DSPF 1.5
*
*|DATE "Wed Jan  8 18:23:35 2025"
*|VENDOR "Cadence Design Systems"
*|PROGRAM "Cadence Quantus Extraction"
*|VERSION "22.1.0-p089 Linux 64 bit - (Thu Jan 19 11:47:08 PST 2023)"
*|DESIGN XOR2X1_HS
*|DIVIDER /
*|DELIMITER :
*|DeviceFingerDelim "@"
*|BUSBIT []
*|GLOBAL_TEMPERATURE 25
*|OPERATING_TEMPERATURE 25

** *VIA_COVERAGE_CODES
** *index FF FS FP FU SF SS SP SU PF PS PP PU UF US UP UU X_by_Y
** * "FF" stands for Full landing and Full coverage
** *0 0 0 0 0 0 0 0 0 0 0 0 0 0 0 0 0
** *1 0 0 0 0 0 0 0 0 0 0 0 0 0 0 0 1 1x1
** *2 0 0 0 0 0 0 0 0 0 0 0 0 0 0 1 0 1x1
** *3 0 0 0 0 0 0 0 0 0 0 0 0 0 1 0 0 1x1
** *4 0 0 0 0 0 0 0 0 0 0 0 0 1 0 0 0 1x1
** *5 0 0 0 0 0 0 0 0 0 0 0 1 0 0 0 0 1x1
** *6 0 0 0 0 0 0 0 0 0 0 1 0 0 0 0 0 1x1
** *7 0 0 0 0 0 0 0 0 0 1 0 0 0 0 0 0 1x1
** *8 0 0 0 0 0 0 0 0 1 0 0 0 0 0 0 0 1x1
** *9 0 0 0 0 0 0 0 1 0 0 0 0 0 0 0 0 1x1
** *10 0 0 0 0 0 0 1 0 0 0 0 0 0 0 0 0 1x1
** *11 0 0 0 0 0 1 0 0 0 0 0 0 0 0 0 0 1x1
** *12 0 0 0 0 1 0 0 0 0 0 0 0 0 0 0 0 1x1
** *13 0 0 0 1 0 0 0 0 0 0 0 0 0 0 0 0 1x1
** *14 0 0 1 0 0 0 0 0 0 0 0 0 0 0 0 0 1x1
** *15 0 1 0 0 0 0 0 0 0 0 0 0 0 0 0 0 1x1
** *16 1 0 0 0 0 0 0 0 0 0 0 0 0 0 0 0 1x1

** *RESISTOR_TYPES
** *1 SHORTING_ELEMENT
** *2 PRES_NG
** *3 PRES_PG
** *4 PRES_NF
** *5 PRES_PF
** *6 TCN_NDIFF
** *7 TCN_PDIFF
** *8 TCN_NFIELD
** *9 TCN_PFIELD
** *10 QUALITY_EXTRACTED
** *11 GCNLAND
** *12 TCNLAND
** *13 DUMMY
** *14 RSD
** *15 BRIDGE

** *RESISTOR_CURRENT_DIRECTION
** *0 HORIZONTAL
** *1 VERTICAL
** *2 45 DEGREE

** QRC_TECH_DIR /vols/wfo_devel/projects/reference_SKY130/tech/sky130_release_0.0.4/quantus/extraction/typical 
** HIERARCHICAL_SPLIT_PINS_DELIMITER '%'
** caps2d version: 10
*
.SUBCKT  XOR2X1_HS A B Y
*
*Net Section
*
*|GROUND_NET VSS!
*
*LAYER_MAP
*0 none
*1 metal1
*2 li
*3 poly
*4 diff
*5 licon_diff
*6 mcon
*7 licon
*8 FOX

*|NET A 9.14081e-16
*|P (A X 0 0.9350 1.8800) // $llx=0.9350 $lly=1.8800 $urx=0.9350 $ury=1.8800 $lvl=1
*|I (Mmp0:g Mmp0 g X 0 0.9050 3.3550) // $llx=0.9050 $lly=3.3550 $urx=0.9050 $ury=3.3550 $lvl=3
*|I (Mmn0:g Mmn0 g X 0 0.9050 0.6075) // $llx=0.9050 $lly=0.6075 $urx=0.9050 $ury=0.6075 $lvl=3
*|S (A:8 0.9050 3.8950) // $llx=0.9050 $lly=3.8950 $urx=0.9050 $ury=3.8950 $lvl=3
*|S (A:9 0.9050 1.9000) // $llx=0.9050 $lly=1.9000 $urx=0.9050 $ury=1.9000 $lvl=3
*|S (A:10 0.9050 1.7350) // $llx=0.9050 $lly=1.7350 $urx=0.9050 $ury=1.7350 $lvl=3
*|S (A:11 0.9050 0.2450) // $llx=0.9050 $lly=0.2450 $urx=0.9050 $ury=0.2450 $lvl=3
*|S (A:12 1.2150 1.9000) // $llx=1.2150 $lly=1.9000 $urx=1.2150 $ury=1.9000 $lvl=2
*|S (A:13 0.9200 1.9000) // $llx=0.9200 $lly=1.9000 $urx=0.9200 $ury=1.9000 $lvl=2
*|S (A:14 0.9050 1.9000) // $llx=0.9050 $lly=1.9000 $urx=0.9050 $ury=1.9000 $lvl=2
*|S (A:15 0.9200 1.9000) // $llx=0.9200 $lly=1.9000 $urx=0.9200 $ury=1.9000 $lvl=1
CA1 Mmn0:g VSS! 2.60254e-18 $lvl=3
CA2 A:15 VSS! 1.14362e-17 $lvl=1
CA3 A:8 VSS! 1.63239e-18 $lvl=3
CA4 A:12 VSS! 7.22679e-18 $lvl=2
CA5 A:13 VSS! 1.57725e-18 $lvl=2
CA6 A:9 VSS! 1.85851e-17 $lvl=3
CA7 A:15 n1:27 3.50362e-18 $lvl1=1 $lvl2=1
CA8 A:15 n1:26 2.33586e-18 $lvl1=1 $lvl2=1
CA9 A:15 n1:28 2.2537e-18 $lvl1=1 $lvl2=1
CA10 A:15 n1:20 1.76998e-18 $lvl1=1 $lvl2=2
CA11 A:15 n1:16 1.30691e-18 $lvl1=1 $lvl2=2
CA12 A:15 n1:15 1.29684e-18 $lvl1=1 $lvl2=2
CA13 A:8 n1:16 1.05294e-18 $lvl1=3 $lvl2=2
CA14 A:15 n1:24 1.03842e-17 $lvl1=1 $lvl2=1
CA15 Mmn0:g n1:17 6.56116e-17 $lvl1=3 $lvl2=2
CA16 A:8 n1:12 1.28536e-16 $lvl1=3 $lvl2=2
CA17 A:15 n1:30 7.2204e-18 $lvl1=1 $lvl2=1
CA18 A:9 n2:10 3.60274e-18 $lvl1=3 $lvl2=3
CA19 A:13 n2:23 3.57656e-18 $lvl1=2 $lvl2=2
CA20 A:13 n2:25 3.22601e-18 $lvl1=2 $lvl2=2
CA21 A:15 n2:24 2.69769e-18 $lvl1=1 $lvl2=2
CA22 A:12 n2:10 2.56254e-18 $lvl1=2 $lvl2=3
CA23 A:12 n2:31 2.01022e-18 $lvl1=2 $lvl2=1
CA24 A:13 n2:31 1.30685e-18 $lvl1=2 $lvl2=1
CA25 A:12 n2:24 1.06626e-18 $lvl1=2 $lvl2=2
CA26 A:9 n2:31 6.75625e-19 $lvl1=3 $lvl2=1
CA27 A:8 n2:13 6.21742e-19 $lvl1=3 $lvl2=2
CA28 A:15 n2:17 5.5346e-19 $lvl1=1 $lvl2=2
CA29 A:13 n2:24 4.82834e-19 $lvl1=2 $lvl2=2
CA30 A:9 n2:24 3.85294e-19 $lvl1=3 $lvl2=2
CA31 A:15 n2:13 3.78014e-19 $lvl1=1 $lvl2=2
CA32 A:13 n2:28 3.63128e-19 $lvl1=2 $lvl2=1
CA33 A:12 n2:23 1.65888e-17 $lvl1=2 $lvl2=2
CA34 A:9 n2:25 7.1575e-18 $lvl1=3 $lvl2=2
CA35 A:12 n2:25 2.61132e-17 $lvl1=2 $lvl2=2
CA36 A:15 n2:33 1.15455e-17 $lvl1=1 $lvl2=1
CA37 A:15 n2:31 3.50184e-17 $lvl1=1 $lvl2=1
CA38 A:15 n2:30 6.18604e-18 $lvl1=1 $lvl2=1
CA39 A:15 n2:28 2.23202e-17 $lvl1=1 $lvl2=1
CA40 A:15 n2:25 8.21993e-18 $lvl1=1 $lvl2=2
CA41 A:15 n2:23 1.07718e-17 $lvl1=1 $lvl2=2
CA42 A:9 n2:23 9.36065e-18 $lvl1=3 $lvl2=2
CA43 A:15 VSS!:14 4.35157e-18 $lvl1=1 $lvl2=1
CA44 Mmn0:g VSS!:8 9.13654e-18 $lvl1=3 $lvl2=2
CA45 Mmn0:g VSS!:12 6.69581e-17 $lvl1=3 $lvl2=2
CA46 A:15 VDD!:3 2.21751e-18 $lvl1=1 $lvl2=2
CA47 A:15 VDD!:15 2.2077e-18 $lvl1=1 $lvl2=1
CA48 A:8 VDD!:4 8.93228e-18 $lvl1=3 $lvl2=2
CA49 A:15 VDD! 1.40065e-17 $lvl1=1 $lvl2=1
CA50 A:9 VDD! 7.49369e-18 $lvl1=3 $lvl2=1
CA51 A:8 VDD!:3 1.28466e-16 $lvl1=3 $lvl2=2
CA52 A:9 B:31 3.91035e-18 $lvl1=3 $lvl2=2
CA53 A:15 B:28 3.83748e-18 $lvl1=1 $lvl2=2
CA54 A:9 B:27 3.42234e-18 $lvl1=3 $lvl2=2
CA55 A:12 B:23 3.16296e-18 $lvl1=2 $lvl2=3
CA56 A:13 B:38 3.05915e-18 $lvl1=2 $lvl2=1
CA57 Mmn0:g B:18 2.56888e-18 $lvl1=3 $lvl2=3
CA58 A:15 B:33 2.51027e-18 $lvl1=1 $lvl2=2
CA59 A:12 B:28 2.20899e-18 $lvl1=2 $lvl2=2
CA60 A:12 B:16 2.07008e-18 $lvl1=2 $lvl2=3
CA61 Mmn0:g B:35 1.93144e-18 $lvl1=3 $lvl2=2
CA62 A:9 B:18 1.7405e-18 $lvl1=3 $lvl2=3
CA63 A:13 B:31 1.73556e-18 $lvl1=2 $lvl2=2
CA64 A:13 B:27 1.57427e-18 $lvl1=2 $lvl2=2
CA65 A:8 B:23 1.49671e-18 $lvl1=3 $lvl2=3
CA66 A:8 B:16 1.3757e-18 $lvl1=3 $lvl2=3
CA67 A:9 B:35 1.14457e-18 $lvl1=3 $lvl2=2
CA68 A:15 B:16 1.00269e-18 $lvl1=1 $lvl2=3
CA69 A:8 B:31 8.38197e-19 $lvl1=3 $lvl2=2
CA70 Mmn0:g B:33 6.75818e-19 $lvl1=3 $lvl2=2
CA71 A:8 B:27 6.41845e-19 $lvl1=3 $lvl2=2
CA72 A:15 B:23 5.06271e-19 $lvl1=1 $lvl2=3
CA73 A:9 B:33 4.76826e-19 $lvl1=3 $lvl2=2
CA74 A:13 B:28 4.61384e-19 $lvl1=2 $lvl2=2
CA75 A:15 B:38 9.60508e-17 $lvl1=1 $lvl2=1
CA76 A:12 B:38 5.56187e-18 $lvl1=2 $lvl2=1
CA77 A:15 B:27 7.98862e-18 $lvl1=1 $lvl2=2
CA78 A:15 B 2.85555e-17 $lvl1=1 $lvl2=1
CA79 A:15 B:31 1.21612e-17 $lvl1=1 $lvl2=2
CA80 A:15 B:35 9.08334e-18 $lvl1=1 $lvl2=2
CA81 A:12 B:31 6.07759e-18 $lvl1=2 $lvl2=2
CA82 A:9 B:16 5.08187e-18 $lvl1=3 $lvl2=3
CA83 A:12 B:27 7.59649e-18 $lvl1=2 $lvl2=2
CA84 A:9 B:23 4.67838e-18 $lvl1=3 $lvl2=3
ReA1 A:15 A 0.009615 $metal1  $L=0.02 $W=0.260000 $SI_W=0.26 $TYPE=10 $DIR=1 $LLX=0.790000 $LLY=1.880000 $URX=1.050000 $URY=1.900000 $lvl=1
RfA2 A:12 A:13 22.211765 $li  $L=0.295 $W=0.170000 $SI_W=0.17 $TYPE=10 $DIR=0 $LLX=0.920000 $LLY=1.815000 $URX=1.215000 $URY=1.985000 $lvl=2
RfA3 A:13 A:14 1.129412 $li  $L=0.015 $W=1000000 $SI_W=1000000 $TYPE=1,10 $DIR=0 $LLX=0.905000 $LLY=1.815000 $URX=0.920000 $URY=1.985000 $lvl=2
RgA4 A:8 Mmp0:g 173.519989 $poly  $L=0.54 $W=0.150000 $SI_W=0.15 $TYPE=10 $DIR=1 $LLX=0.830000 $LLY=3.355000 $URX=0.980000 $URY=3.895000 $lvl=3
RgA5 Mmp0:g A:9 448.699097 $poly  $L=1.455 $W=0.150000 $SI_W=0.15 $TYPE=10 $DIR=1 $LLX=0.830000 $LLY=1.900000 $URX=0.980000 $URY=3.355000 $lvl=3
RgA6 A:9 A:10 34.134449 $poly  $L=0.1645 $W=0.270000 $SI_W=0.27 $TYPE=10 $DIR=1 $LLX=0.770000 $LLY=1.735500 $URX=1.040000 $URY=1.900000 $lvl=3
RgA7 A:10 Mmn0:g 362.347961 $poly  $L=1.1275 $W=0.150000 $SI_W=0.15 $TYPE=10 $DIR=1 $LLX=0.830000 $LLY=0.607500 $URX=0.980000 $URY=1.735000 $lvl=3
RgA8 Mmn0:g A:11 116.483322 $poly  $L=0.3625 $W=0.150000 $SI_W=0.15 $TYPE=10 $DIR=1 $LLX=0.830000 $LLY=0.245000 $URX=0.980000 $URY=0.607500 $lvl=3
RjA9 A:13 A:15 152.000000 $mcon  $L=0.17 $W=0.17 $A=0.0289 $VC=0 $SAVL=0 $SAVC=0 $SI_A=0.0289 $COVER_DIR=0 $LLX=0.000000 $LLY=0.000000 $URX=0.170000 $URY=0.170000 $lvl=6
RiA10 A:9 A:14 15.000000 $licon  $L=0.17 $W=0.17 $A=0.0289 $VC=0 $SAVL=0 $SAVC=0 $SI_A=0.0289 $COVER_DIR=0 $LLX=0.000000 $LLY=0.000000 $URX=0.170000 $URY=0.170000 $lvl=7
*
*|NET Y 1.32417e-15
*|P (Y X 0 3.2350 1.5750) // $llx=3.2350 $lly=1.5750 $urx=3.2350 $ury=1.5750 $lvl=1
*|I (Mmp5:d Mmp5 d X 0 2.7605 3.0150) // $llx=2.7605 $lly=3.0150 $urx=2.7605 $ury=3.0150 $lvl=4
*|I (Mmn5:d Mmn5 d X 0 2.7605 0.7750) // $llx=2.7605 $lly=0.7750 $urx=2.7605 $ury=0.7750 $lvl=4
*|S (Y:1 2.9000 3.7450) // $llx=2.9000 $lly=3.7450 $urx=2.9000 $ury=3.7450 $lvl=2
*|S (Y:3 2.9000 3.0150) // $llx=2.9000 $lly=3.0150 $urx=2.9000 $ury=3.0150 $lvl=2
*|S (Y:4 2.9000 2.9850) // $llx=2.9000 $lly=2.9850 $urx=2.9000 $ury=2.9850 $lvl=2
*|S (Y:5 2.9000 2.2850) // $llx=2.9000 $lly=2.2850 $urx=2.9000 $ury=2.2850 $lvl=2
*|S (Y:6 2.9000 1.1550) // $llx=2.9000 $lly=1.1550 $urx=2.9000 $ury=1.1550 $lvl=2
*|S (Y:8 2.9000 0.7750) // $llx=2.9000 $lly=0.7750 $urx=2.9000 $ury=0.7750 $lvl=2
*|S (Y:9 2.9000 0.7450) // $llx=2.9000 $lly=0.7450 $urx=2.9000 $ury=0.7450 $lvl=2
*|S (Y:10 2.9000 0.3950) // $llx=2.9000 $lly=0.3950 $urx=2.9000 $ury=0.3950 $lvl=2
*|S (Y:11 2.9000 0.4200) // $llx=2.9000 $lly=0.4200 $urx=2.9000 $ury=0.4200 $lvl=1
*|S (Y:12 2.9000 0.7450) // $llx=2.9000 $lly=0.7450 $urx=2.9000 $ury=0.7450 $lvl=1
*|S (Y:13 3.0295 0.8425) // $llx=3.0295 $lly=0.8425 $urx=3.0295 $ury=0.8425 $lvl=1
*|S (Y:14 3.2200 0.9400) // $llx=3.2200 $lly=0.9400 $urx=3.2200 $ury=0.9400 $lvl=1
*|S (Y:15 3.2200 2.6100) // $llx=3.2200 $lly=2.6100 $urx=3.2200 $ury=2.6100 $lvl=1
*|S (Y:16 2.9000 2.6100) // $llx=2.9000 $lly=2.6100 $urx=2.9000 $ury=2.6100 $lvl=1
*|S (Y:17 2.9000 2.9850) // $llx=2.9000 $lly=2.9850 $urx=2.9000 $ury=2.9850 $lvl=1
CC1 Mmn5:d VSS! 1.08627e-18 $lvl=4
CC2 Mmp5:d VSS! 2.0251e-18 $lvl=4
CC3 Y:11 VSS! 3.23514e-18 $lvl=1
CC4 Y:16 VSS! 4.04394e-18 $lvl=1
CC5 Y:15 VSS! 9.3768e-18 $lvl=1
CC6 Y:14 VSS! 8.22919e-18 $lvl=1
CC7 Y:6 VSS! 1.67622e-17 $lvl=2
CC8 Y:10 VSS! 1.02976e-18 $lvl=2
CC9 Y:1 VSS! 7.18897e-18 $lvl=2
CC10 Y:5 VSS! 2.84685e-18 $lvl=2
CC11 Y:9 VSS! 1.89967e-18 $lvl=2
CC12 Y:4 VSS! 1.28455e-18 $lvl=2
CC13 Y VSS! 9.60066e-18 $lvl=1
CC14 Y:4 n0:28 5.85594e-18 $lvl1=2 $lvl2=1
CC15 Y n0:21 5.39727e-18 $lvl1=1 $lvl2=2
CC16 Y:1 n0:28 5.1401e-18 $lvl1=2 $lvl2=1
CC17 Y:15 n0:28 4.34581e-18 $lvl1=1 $lvl2=1
CC18 Y:9 n0:26 4.11833e-18 $lvl1=2 $lvl2=1
CC19 Y:5 n0:27 3.53856e-18 $lvl1=2 $lvl2=1
CC20 Y:9 n0:27 2.33176e-18 $lvl1=2 $lvl2=1
CC21 Y:14 n0:21 2.07995e-18 $lvl1=1 $lvl2=2
CC22 Mmn5:d n0:9 2.04573e-18 $lvl1=4 $lvl2=3
CC23 Y n0:9 1.9637e-18 $lvl1=1 $lvl2=3
CC24 Y:6 n0:27 1.83547e-18 $lvl1=2 $lvl2=1
CC25 Y:1 n0:27 1.65397e-18 $lvl1=2 $lvl2=1
CC26 Y:14 n0:26 1.54421e-18 $lvl1=1 $lvl2=1
CC27 Y:9 n0:21 1.53533e-18 $lvl1=2 $lvl2=2
CC28 Y:6 n0:23 1.48658e-18 $lvl1=2 $lvl2=2
CC29 Y n0:23 1.27089e-18 $lvl1=1 $lvl2=2
CC30 Y:4 n0:27 1.23944e-18 $lvl1=2 $lvl2=1
CC31 Y:11 n0:21 1.09302e-18 $lvl1=1 $lvl2=2
CC32 Y:5 n0:8 9.85925e-19 $lvl1=2 $lvl2=3
CC33 Y:15 n0:21 9.27597e-19 $lvl1=1 $lvl2=2
CC34 Y:5 n0:9 8.95344e-19 $lvl1=2 $lvl2=3
CC35 Y n0:28 8.67095e-19 $lvl1=1 $lvl2=1
CC36 Y n0:26 8.63521e-19 $lvl1=1 $lvl2=1
CC37 Y:1 n0:9 7.97419e-19 $lvl1=2 $lvl2=3
CC38 Y:14 n0:9 7.87041e-19 $lvl1=1 $lvl2=3
CC39 Y:9 n0:23 7.72009e-19 $lvl1=2 $lvl2=2
CC40 Y:5 n0:21 7.7004e-19 $lvl1=2 $lvl2=2
CC41 Y:10 n0 5.93689e-19 $lvl1=2 $lvl2=3
CC42 Y:11 n0:23 5.66743e-19 $lvl1=1 $lvl2=2
CC43 Y:1 n0:21 5.20822e-19 $lvl1=2 $lvl2=2
CC44 Y:6 n0:26 4.60786e-19 $lvl1=2 $lvl2=1
CC45 Y:16 n0:30 4.52963e-19 $lvl1=1 $lvl2=1
CC46 Y:10 n0:26 4.2835e-19 $lvl1=2 $lvl2=1
CC47 Y:15 n0:9 4.28323e-19 $lvl1=1 $lvl2=3
CC48 Y:14 n0:23 4.05921e-19 $lvl1=1 $lvl2=2
CC49 Y:9 n0:9 3.91075e-19 $lvl1=2 $lvl2=3
CC50 Y:6 n0:9 9.4357e-18 $lvl1=2 $lvl2=3
CC51 Y:15 n0:27 1.43232e-17 $lvl1=1 $lvl2=1
CC52 Y:6 n0 1.27011e-16 $lvl1=2 $lvl2=3
CC53 Y:16 n0:28 9.05288e-17 $lvl1=1 $lvl2=1
CC54 Y:16 n0:27 1.65098e-17 $lvl1=1 $lvl2=1
CC55 Y:11 n0:26 4.76804e-17 $lvl1=1 $lvl2=1
CC56 Y:1 n0:8 2.54702e-16 $lvl1=2 $lvl2=3
CC57 Y:6 n0:21 1.06125e-17 $lvl1=2 $lvl2=2
CC58 Y:11 n0:27 2.74352e-17 $lvl1=1 $lvl2=1
CC59 Y:14 n0:27 7.2462e-18 $lvl1=1 $lvl2=1
CC60 Y n0:27 2.47804e-17 $lvl1=1 $lvl2=1
CC61 Y:16 n1:28 1.64731e-18 $lvl1=1 $lvl2=1
CC62 Y n1:27 1.38044e-18 $lvl1=1 $lvl2=1
CC63 Y:15 n1:28 1.23507e-18 $lvl1=1 $lvl2=1
CC64 Y:15 n1:27 1.1834e-18 $lvl1=1 $lvl2=1
CC65 Y:11 n1:26 1.02214e-18 $lvl1=1 $lvl2=1
CC66 Y:16 n1:27 1.01129e-18 $lvl1=1 $lvl2=1
CC67 Y:5 n1:21 9.2146e-19 $lvl1=2 $lvl2=2
CC68 Y:5 n1:9 7.65241e-19 $lvl1=2 $lvl2=3
CC69 Y:14 n1:27 7.03601e-19 $lvl1=1 $lvl2=1
CC70 Y:1 n1:9 6.90561e-19 $lvl1=2 $lvl2=3
CC71 Y:1 n1:21 6.51019e-19 $lvl1=2 $lvl2=2
CC72 Y n1:21 6.46348e-19 $lvl1=1 $lvl2=2
CC73 Y n1:26 6.32378e-19 $lvl1=1 $lvl2=1
CC74 Y:14 n1:26 5.92435e-19 $lvl1=1 $lvl2=1
CC75 Y:11 n1:27 5.36904e-19 $lvl1=1 $lvl2=1
CC76 Mmp5:d n1:9 4.35995e-19 $lvl1=4 $lvl2=3
CC77 Y:9 VSS!:8 3.91838e-18 $lvl1=2 $lvl2=2
CC78 Y VSS!:14 3.88482e-18 $lvl1=1 $lvl2=1
CC79 Y:9 VSS!:14 3.58368e-18 $lvl1=2 $lvl2=1
CC80 Y:14 VSS!:10 3.48569e-18 $lvl1=1 $lvl2=2
CC81 Y:10 VSS!:3 3.14042e-18 $lvl1=2 $lvl2=2
CC82 Y:10 VSS!:10 2.64074e-18 $lvl1=2 $lvl2=2
CC83 Y:11 VSS!:3 2.54305e-18 $lvl1=1 $lvl2=2
CC84 Y:15 VSS!:14 2.53462e-18 $lvl1=1 $lvl2=1
CC85 Y:9 VSS!:10 2.52735e-18 $lvl1=2 $lvl2=2
CC86 Y:6 VSS!:6 2.45295e-18 $lvl1=2 $lvl2=4
CC87 Y:9 VSS!:5 2.3722e-18 $lvl1=2 $lvl2=2
CC88 Y:6 VSS!:14 2.36845e-18 $lvl1=2 $lvl2=1
CC89 Mmn5:d VSS!:10 2.04081e-18 $lvl1=4 $lvl2=2
CC90 Y:10 VSS!:5 1.83089e-18 $lvl1=2 $lvl2=2
CC91 Mmn5:d VSS!:8 1.71857e-18 $lvl1=4 $lvl2=2
CC92 Y:11 VSS!:5 1.7161e-18 $lvl1=1 $lvl2=2
CC93 Y:10 VSS!:14 1.55348e-18 $lvl1=2 $lvl2=1
CC94 Y:6 VSS!:5 1.16949e-18 $lvl1=2 $lvl2=2
CC95 Y:11 VSS!:10 1.08821e-18 $lvl1=1 $lvl2=2
CC96 Y:11 VSS!:8 1.07933e-18 $lvl1=1 $lvl2=2
CC97 Y VSS!:10 7.30361e-19 $lvl1=1 $lvl2=2
CC98 Y:16 VSS!:14 6.82894e-19 $lvl1=1 $lvl2=1
CC99 Y:11 VSS!:14 4.30632e-17 $lvl1=1 $lvl2=1
CC100 Y:14 VSS!:14 1.57162e-17 $lvl1=1 $lvl2=1
CC101 Y:6 VSS!:10 7.64514e-18 $lvl1=2 $lvl2=2
CC102 Y:10 VSS!:8 8.5337e-18 $lvl1=2 $lvl2=2
CC103 Y:6 VSS!:8 7.26275e-18 $lvl1=2 $lvl2=2
CC104 Y:9 VSS!:3 1.52176e-17 $lvl1=2 $lvl2=2
CC105 Y:6 VSS!:3 3.97245e-17 $lvl1=2 $lvl2=2
CC106 Y:11 VDD! 6.41194e-18 $lvl1=1 $lvl2=1
CC107 Y:16 VDD!:14 5.41835e-18 $lvl1=1 $lvl2=1
CC108 Y:16 VDD!:11 4.53289e-18 $lvl1=1 $lvl2=2
CC109 Y:15 VDD!:15 4.04406e-18 $lvl1=1 $lvl2=1
CC110 Y:1 VDD!:6 3.33545e-18 $lvl1=2 $lvl2=2
CC111 Y:1 VDD!:14 3.08726e-18 $lvl1=2 $lvl2=1
CC112 Y:1 VDD!:7 2.98674e-18 $lvl1=2 $lvl2=4
CC113 Y:15 VDD!:14 2.94445e-18 $lvl1=1 $lvl2=1
CC114 Y:5 VDD! 2.43145e-18 $lvl1=2 $lvl2=1
CC115 Mmp5:d VDD!:4 2.07563e-18 $lvl1=4 $lvl2=2
CC116 Mmp5:d VDD!:13 1.93716e-18 $lvl1=4 $lvl2=2
CC117 Y:16 VDD!:13 1.66483e-18 $lvl1=1 $lvl2=2
CC118 Y:9 VDD! 1.48654e-18 $lvl1=2 $lvl2=1
CC119 Y:15 VDD!:13 1.43301e-18 $lvl1=1 $lvl2=2
CC120 Y:16 VDD!:4 1.4094e-18 $lvl1=1 $lvl2=2
CC121 Y:15 VDD!:11 1.20229e-18 $lvl1=1 $lvl2=2
CC122 Y:4 VDD!:15 1.14928e-18 $lvl1=2 $lvl2=1
CC123 Y:16 VDD!:6 1.08492e-18 $lvl1=1 $lvl2=2
CC124 Y:4 VDD! 1.03892e-18 $lvl1=2 $lvl2=1
CC125 Y VDD!:15 9.25994e-19 $lvl1=1 $lvl2=1
CC126 Y VDD!:11 8.70903e-19 $lvl1=1 $lvl2=2
CC127 Y VDD!:14 8.21696e-19 $lvl1=1 $lvl2=1
CC128 Y:14 VDD!:15 7.184e-19 $lvl1=1 $lvl2=1
CC129 Y:4 VDD!:4 5.39481e-19 $lvl1=2 $lvl2=2
CC130 Y:4 VDD!:13 5.29922e-19 $lvl1=2 $lvl2=2
CC131 Y:4 VDD!:14 4.75252e-19 $lvl1=2 $lvl2=1
CC132 Y:1 VDD!:11 9.191e-17 $lvl1=2 $lvl2=2
CC133 Y:16 VDD! 1.43782e-17 $lvl1=1 $lvl2=1
CC134 Y:6 VDD! 6.71291e-18 $lvl1=2 $lvl2=1
CC135 Y:15 VDD! 3.42836e-17 $lvl1=1 $lvl2=1
CC136 Y:1 VDD!:4 2.0022e-17 $lvl1=2 $lvl2=2
CC137 Y:14 VDD! 2.23139e-17 $lvl1=1 $lvl2=1
CC138 Y:16 VDD!:15 2.0591e-17 $lvl1=1 $lvl2=1
CC139 Y:1 VDD! 3.9867e-17 $lvl1=2 $lvl2=1
CC140 Y:4 VDD!:11 7.36979e-18 $lvl1=2 $lvl2=2
CC141 Y:1 VDD!:13 1.34286e-17 $lvl1=2 $lvl2=2
CC142 Y VDD! 2.43222e-17 $lvl1=1 $lvl2=1
CC143 Y:5 VDD!:11 8.19541e-18 $lvl1=2 $lvl2=2
CC144 Y:1 VDD!:15 6.6713e-18 $lvl1=2 $lvl2=1
ReC39 Y:11 Y:12 0.156250 $metal1  $L=0.325 $W=0.260000 $SI_W=0.26 $TYPE=10 $DIR=1 $LLX=2.770000 $LLY=0.420000 $URX=3.030000 $URY=0.745000 $lvl=1
ReC40 Y:12 Y:13 0.035671 $metal1  $L=0.1295 $W=0.455000 $SI_W=0.455 $TYPE=10 $DIR=0 $LLX=2.900000 $LLY=0.615000 $URX=3.029500 $URY=1.070000 $lvl=1
ReC41 Y:13 Y:14 0.091535 $metal1  $L=0.19025 $W=0.260000 $SI_W=0.26 $TYPE=10 $DIR=0 $LLX=3.030000 $LLY=0.810000 $URX=3.220000 $URY=1.070000 $lvl=1
ReC42 Y:14 Y 0.305168 $metal1  $L=0.63475 $W=0.260000 $SI_W=0.26 $TYPE=10 $DIR=1 $LLX=3.090000 $LLY=0.940000 $URX=3.350000 $URY=1.575000 $lvl=1
ReC43 Y Y:15 0.497716 $metal1  $L=1.03525 $W=0.260000 $SI_W=0.26 $TYPE=10 $DIR=1 $LLX=3.090000 $LLY=1.575000 $URX=3.350000 $URY=2.610000 $lvl=1
ReC44 Y:15 Y:16 0.153846 $metal1  $L=0.32 $W=0.260000 $SI_W=0.26 $TYPE=10 $DIR=0 $LLX=2.900000 $LLY=2.480000 $URX=3.220000 $URY=2.740000 $lvl=1
ReC45 Y:16 Y:17 0.203668 $metal1  $L=0.37475 $W=0.230000 $SI_W=0.23 $TYPE=10 $DIR=1 $LLX=2.785000 $LLY=2.610000 $URX=3.015000 $URY=2.985000 $lvl=1
RfC46 Y:1 Y:3 54.964703 $li  $L=0.73 $W=0.170000 $SI_W=0.17 $TYPE=10 $DIR=1 $LLX=2.815000 $LLY=3.015000 $URX=2.985000 $URY=3.745000 $lvl=2
RfC47 Y:3 Y:4 0.431461 $li  $L=0.03 $W=0.170000 $SI_W=0.89 $TYPE=10 $DIR=1 $LLX=2.815000 $LLY=2.985000 $URX=2.985000 $URY=3.015000 $lvl=2
RfC48 Y:4 Y:5 52.705883 $li  $L=0.7 $W=0.170000 $SI_W=0.17 $TYPE=10 $DIR=1 $LLX=2.815000 $LLY=2.285000 $URX=2.985000 $URY=2.985000 $lvl=2
RfC49 Y:6 Y:8 28.611765 $li  $L=0.38 $W=0.170000 $SI_W=0.17 $TYPE=10 $DIR=1 $LLX=2.815000 $LLY=0.775000 $URX=2.985000 $URY=1.155000 $lvl=2
RfC50 Y:8 Y:9 0.783673 $li  $L=0.03 $W=0.170000 $SI_W=0.49 $TYPE=10 $DIR=1 $LLX=2.815000 $LLY=0.745000 $URX=2.985000 $URY=0.775000 $lvl=2
RfC51 Y:9 Y:10 26.352942 $li  $L=0.35 $W=0.170000 $SI_W=0.17 $TYPE=10 $DIR=1 $LLX=2.815000 $LLY=0.395000 $URX=2.985000 $URY=0.745000 $lvl=2
RhC52 Mmn5:d Y:8 7.500000 $licon_diff  $A=0.0578 $VC=0 $SAVL=0 $SAVC=0 $SI_A=0.0578 $COVER_DIR=0 $LLX=0.000000 $LLY=0.000000 $URX=-0.057800 $URY=-2.000000 $lvl=5
Rh_2_C53 Mmp5:d Y:3 3.750000 $licon_diff  $A=0.1156 $VC=0 $SAVL=0 $SAVC=0 $SI_A=0.1156 $COVER_DIR=0 $LLX=0.000000 $LLY=0.000000 $URX=-0.115600 $URY=-4.000000 $lvl=5
RjC54 Y:9 Y:12 76.000000 $mcon  $A=0.0578 $VC=0 $SAVL=0 $SAVC=0 $SI_A=0.0578 $COVER_DIR=0 $LLX=0.000000 $LLY=0.000000 $URX=-0.057800 $URY=-2.000000 $lvl=6
RjC55 Y:4 Y:17 50.666668 $mcon  $A=0.0867 $VC=0 $SAVL=0 $SAVC=0 $SI_A=0.0867 $COVER_DIR=0 $LLX=0.000000 $LLY=0.000000 $URX=-0.086700 $URY=-3.000000 $lvl=6
*
*|NET VSS! 2.04559e-15
*|P (VSS! X 0 1.8300 0.0050) // $llx=1.8300 $lly=0.0050 $urx=1.8300 $ury=0.0050 $lvl=1
*|I (Mmn3:b Mmn3 b X 0 1.7650 0.6075) // $llx=1.7650 $lly=0.6075 $urx=1.7650 $ury=0.6075 $lvl=8
*|I (Mmn5:s Mmn5 s X 0 2.6095 0.7750) // $llx=2.6095 $lly=0.7750 $urx=2.6095 $ury=0.7750 $lvl=4
*|I (Mmn5:b Mmn5 b X 0 2.6850 0.7750) // $llx=2.6850 $lly=0.7750 $urx=2.6850 $ury=0.7750 $lvl=8
*|I (Mmn0:s Mmn0 s X 0 0.8295 0.6075) // $llx=0.8295 $lly=0.6075 $urx=0.8295 $ury=0.6075 $lvl=4
*|I (Mmn0:b Mmn0 b X 0 0.9050 0.6075) // $llx=0.9050 $lly=0.6075 $urx=0.9050 $ury=0.6075 $lvl=8
*|I (Mmn1:s Mmn1 s X 0 0.5505 0.6075) // $llx=0.5505 $lly=0.6075 $urx=0.5505 $ury=0.6075 $lvl=4
*|I (Mmn1:b Mmn1 b X 0 0.4750 0.6075) // $llx=0.4750 $lly=0.6075 $urx=0.4750 $ury=0.6075 $lvl=8
*|I (Mmn4:b Mmn4 b X 0 1.3350 0.6075) // $llx=1.3350 $lly=0.6075 $urx=1.3350 $ury=0.6075 $lvl=8
*|I (Mmn2:s Mmn2 s X 0 2.2705 0.6075) // $llx=2.2705 $lly=0.6075 $urx=2.2705 $ury=0.6075 $lvl=4
*|I (Mmn2:b Mmn2 b X 0 2.1950 0.6075) // $llx=2.1950 $lly=0.6075 $urx=2.1950 $ury=0.6075 $lvl=8
*|S (VSS!:1 2.4700 1.1550) // $llx=2.4700 $lly=1.1550 $urx=2.4700 $ury=1.1550 $lvl=2
*|S (VSS!:3 2.4700 0.7750) // $llx=2.4700 $lly=0.7750 $urx=2.4700 $ury=0.7750 $lvl=2
*|S (VSS!:4 2.4700 0.0000) // $llx=2.4700 $lly=0.0000 $urx=2.4700 $ury=0.0000 $lvl=2
*|S (VSS!:5 1.8400 0.0000) // $llx=1.8400 $lly=0.0000 $urx=1.8400 $ury=0.0000 $lvl=2
*|S (VSS!:6 1.8400 0.0000) // $llx=1.8400 $lly=0.0000 $urx=1.8400 $ury=0.0000 $lvl=4
*|S (VSS!:8 0.6900 0.0000) // $llx=0.6900 $lly=0.0000 $urx=0.6900 $ury=0.0000 $lvl=2
*|S (VSS!:9 0.0000 0.0000) // $llx=0.0000 $lly=0.0000 $urx=0.0000 $ury=0.0000 $lvl=2
*|S (VSS!:10 3.6795 0.0000) // $llx=3.6795 $lly=0.0000 $urx=3.6795 $ury=0.0000 $lvl=2
*|S (VSS!:12 0.6900 0.6050) // $llx=0.6900 $lly=0.6050 $urx=0.6900 $ury=0.6050 $lvl=2
*|S (VSS!:13 0.6900 0.8200) // $llx=0.6900 $lly=0.8200 $urx=0.6900 $ury=0.8200 $lvl=2
*|S (VSS!:14 1.8400 0.0000) // $llx=1.8400 $lly=0.0000 $urx=1.8400 $ury=0.0000 $lvl=1
ReE79 VSS!:14 VSS! 0.003125 $metal1  $L=0.01 $W=0.400000 $SI_W=0.4 $TYPE=10 $DIR=0 $LLX=1.830000 $LLY=-0.199500 $URX=1.840000 $URY=0.200000 $lvl=1
RfE80 VSS!:1 VSS!:3 28.611765 $li  $L=0.38 $W=0.170000 $SI_W=0.17 $TYPE=10 $DIR=1 $LLX=2.385000 $LLY=0.775000 $URX=2.555000 $URY=1.155000 $lvl=2
RfE81 VSS!:3 VSS!:4 55.328377 $li  $L=0.77475 $W=0.170000 $SI_W=0.17 $TYPE=10 $DIR=1 $LLX=2.385000 $LLY=0.000000 $URX=2.555000 $URY=0.775000 $lvl=2
RfE82 VSS!:4 VSS!:5 32.268803 $li  $L=0.63025 $W=0.250000 $SI_W=0.25 $TYPE=10 $DIR=0 $LLX=1.840000 $LLY=-0.124500 $URX=2.470000 $URY=0.125000 $lvl=2
RfE83 VSS!:5 VSS!:8 58.867199 $li  $L=1.14975 $W=0.250000 $SI_W=0.25 $TYPE=10 $DIR=0 $LLX=0.690000 $LLY=-0.124500 $URX=1.840000 $URY=0.125000 $lvl=2
RfE84 VSS!:8 VSS!:9 35.340801 $li  $L=0.69025 $W=0.250000 $SI_W=0.25 $TYPE=10 $DIR=0 $LLX=0.000000 $LLY=-0.124500 $URX=0.690000 $URY=0.125000 $lvl=2
RfE85 VSS!:4 VSS!:10 61.913601 $li  $L=1.20925 $W=0.250000 $SI_W=0.25 $TYPE=10 $DIR=0 $LLX=2.470000 $LLY=-0.124500 $URX=3.679000 $URY=0.125000 $lvl=2
RfE86 VSS!:8 VSS!:12 42.528378 $li  $L=0.60475 $W=0.170000 $SI_W=0.17 $TYPE=10 $DIR=1 $LLX=0.605000 $LLY=0.000000 $URX=0.775000 $URY=0.605000 $lvl=2
RfE87 VSS!:12 VSS!:13 16.188236 $li  $L=0.215 $W=0.170000 $SI_W=0.17 $TYPE=10 $DIR=1 $LLX=0.605000 $LLY=0.605000 $URX=0.775000 $URY=0.820000 $lvl=2
RhE88 Mmn5:s VSS!:3 7.500000 $licon_diff  $A=0.0578 $VC=0 $SAVL=0 $SAVC=0 $SI_A=0.0578 $COVER_DIR=0 $LLX=0.000000 $LLY=0.000000 $URX=-0.057800 $URY=-2.000000 $lvl=5
RhE89 Mmn0:s VSS!:12 15.000000 $licon_diff  $L=0.17 $W=0.17 $A=0.0289 $VC=0 $SAVL=0 $SAVC=0 $SI_A=0.0289 $COVER_DIR=0 $LLX=0.000000 $LLY=0.000000 $URX=0.170000 $URY=0.170000 $lvl=5
Rh_3_E90 VSS!:6 VSS!:5 2.142857 $licon_diff  $A=0.2023 $VC=0 $SAVL=0 $SAVC=0 $SI_A=0.2023 $COVER_DIR=0 $LLX=0.000000 $LLY=0.000000 $URX=-0.202300 $URY=-7.000000 $lvl=5
RjE91 VSS!:5 VSS!:14 21.714285 $mcon  $A=0.2023 $VC=0 $SAVL=0 $SAVC=0 $SI_A=0.2023 $COVER_DIR=0 $LLX=0.000000 $LLY=0.000000 $URX=-0.202300 $URY=-7.000000 $lvl=6
RmwE92 Mmn3:b VSS! 0.001000 $FOX $W=1000000 $SI_W=1000000 $TYPE=1 $DIR=0
RmwE93 Mmn5:b VSS! 0.001000 $FOX $W=1000000 $SI_W=1000000 $TYPE=1 $DIR=0
RmwE94 Mmn0:b VSS! 0.001000 $FOX $W=1000000 $SI_W=1000000 $TYPE=1 $DIR=0
RmwE95 Mmn1:s Mmn0:s 0.001000 $diff $W=1000000 $SI_W=1000000 $TYPE=1 $DIR=0
RmwE96 Mmn1:b VSS! 0.001000 $FOX $W=1000000 $SI_W=1000000 $TYPE=1 $DIR=0
RmwE97 Mmn4:b VSS! 0.001000 $FOX $W=1000000 $SI_W=1000000 $TYPE=1 $DIR=0
RmwE98 Mmn2:s Mmn5:s 0.001000 $diff $W=1000000 $SI_W=1000000 $TYPE=1 $DIR=0
RmwE99 Mmn2:b VSS! 0.001000 $FOX $W=1000000 $SI_W=1000000 $TYPE=1 $DIR=0
*
*|NET VDD! 2.32306e-15
*|P (VDD! X 0 1.6400 4.1450) // $llx=1.6400 $lly=4.1450 $urx=1.6400 $ury=4.1450 $lvl=1
*|I (Mmp3:b Mmp3 b X 0 1.7650 3.3550) // $llx=1.7650 $lly=3.3550 $urx=1.7650 $ury=3.3550 $lvl=8
*|I (Mmp5:s Mmp5 s X 0 2.6095 3.0150) // $llx=2.6095 $lly=3.0150 $urx=2.6095 $ury=3.0150 $lvl=4
*|I (Mmp5:b Mmp5 b X 0 2.6850 3.0150) // $llx=2.6850 $lly=3.0150 $urx=2.6850 $ury=3.0150 $lvl=8
*|I (Mmp4:b Mmp4 b X 0 1.3350 3.3550) // $llx=1.3350 $lly=3.3550 $urx=1.3350 $ury=3.3550 $lvl=8
*|I (Mmp1:s Mmp1 s X 0 0.5505 3.3550) // $llx=0.5505 $lly=3.3550 $urx=0.5505 $ury=3.3550 $lvl=4
*|I (Mmp1:b Mmp1 b X 0 0.4750 3.3550) // $llx=0.4750 $lly=3.3550 $urx=0.4750 $ury=3.3550 $lvl=8
*|I (Mmp0:s Mmp0 s X 0 0.8295 3.3550) // $llx=0.8295 $lly=3.3550 $urx=0.8295 $ury=3.3550 $lvl=4
*|I (Mmp0:b Mmp0 b X 0 0.9050 3.3550) // $llx=0.9050 $lly=3.3550 $urx=0.9050 $ury=3.3550 $lvl=8
*|I (Mmp2:s Mmp2 s X 0 2.2705 3.3550) // $llx=2.2705 $lly=3.3550 $urx=2.2705 $ury=3.3550 $lvl=4
*|I (Mmp2:b Mmp2 b X 0 2.1950 3.3550) // $llx=2.1950 $lly=3.3550 $urx=2.1950 $ury=3.3550 $lvl=8
*|S (VDD!:1 0.6900 2.9650) // $llx=0.6900 $lly=2.9650 $urx=0.6900 $ury=2.9650 $lvl=2
*|S (VDD!:3 0.6900 3.3550) // $llx=0.6900 $lly=3.3550 $urx=0.6900 $ury=3.3550 $lvl=2
*|S (VDD!:4 0.6900 4.1400) // $llx=0.6900 $lly=4.1400 $urx=0.6900 $ury=4.1400 $lvl=2
*|S (VDD!:5 0.0000 4.1400) // $llx=0.0000 $lly=4.1400 $urx=0.0000 $ury=4.1400 $lvl=2
*|S (VDD!:6 1.8400 4.1400) // $llx=1.8400 $lly=4.1400 $urx=1.8400 $ury=4.1400 $lvl=2
*|S (VDD!:7 1.8400 4.1400) // $llx=1.8400 $lly=4.1400 $urx=1.8400 $ury=4.1400 $lvl=4
*|S (VDD!:9 2.4700 4.1400) // $llx=2.4700 $lly=4.1400 $urx=2.4700 $ury=4.1400 $lvl=2
*|S (VDD!:11 2.4700 3.0150) // $llx=2.4700 $lly=3.0150 $urx=2.4700 $ury=3.0150 $lvl=2
*|S (VDD!:12 2.4700 2.2850) // $llx=2.4700 $lly=2.2850 $urx=2.4700 $ury=2.2850 $lvl=2
*|S (VDD!:13 3.6795 4.1400) // $llx=3.6795 $lly=4.1400 $urx=3.6795 $ury=4.1400 $lvl=2
*|S (VDD!:14 3.6800 4.1400) // $llx=3.6800 $lly=4.1400 $urx=3.6800 $ury=4.1400 $lvl=1
*|S (VDD!:15 1.8400 4.1400) // $llx=1.8400 $lly=4.1400 $urx=1.8400 $ury=4.1400 $lvl=1
*|S (VDD!:16 0.0000 4.1400) // $llx=0.0000 $lly=4.1400 $urx=0.0000 $ury=4.1400 $lvl=1
CD1 Mmp1:s VSS! 2.03864e-18 $lvl=4
CD2 Mmp5:s VSS! 3.08866e-18 $lvl=4
CD3 VDD!:15 VSS! 1.22844e-17 $lvl=1
CD4 VDD!:14 VSS! 6.55037e-18 $lvl=1
CD5 VDD!:16 VSS! 6.74467e-18 $lvl=1
CD6 VDD!:11 VSS! 9.15165e-18 $lvl=2
CD7 VDD!:3 VSS! 4.86488e-18 $lvl=2
CD8 VDD!:13 VSS! 3.57376e-18 $lvl=2
CD9 VDD!:4 VSS! 4.08879e-18 $lvl=2
CD10 VDD!:5 VSS! 2.80423e-18 $lvl=2
CD11 VDD!:7 VSS! 2.8782e-18 $lvl=4
CD12 VDD!:6 VSS! 2.8489e-18 $lvl=2
CD13 VDD! VSS! 7.30144e-18 $lvl=1
CD14 VDD!:15 net130 1.40509e-18 $lvl1=1 $lvl2=2
CD15 VDD!:6 net130 1.0935e-18 $lvl1=2 $lvl2=2
CD16 VDD! net130:3 8.54071e-19 $lvl1=1 $lvl2=2
CD17 VDD! net130:4 5.99694e-19 $lvl1=1 $lvl2=2
CD18 VDD!:4 net130 5.63941e-18 $lvl1=2 $lvl2=2
CD19 VDD!:11 Mmp3:s 1.54003e-18 $lvl1=2 $lvl2=4
CD20 VDD!:4 net130:3 1.83527e-18 $lvl1=2 $lvl2=2
CD21 VDD!:11 net130:3 2.44908e-17 $lvl1=2 $lvl2=2
CD22 VDD!:11 net130:4 9.4254e-18 $lvl1=2 $lvl2=2
CD23 VDD!:11 net130 6.95344e-18 $lvl1=2 $lvl2=2
CD24 VDD!:4 Mmp3:s 2.30447e-18 $lvl1=2 $lvl2=4
CD25 VDD!:4 n0:8 8.53738e-18 $lvl1=2 $lvl2=3
CD26 VDD! n0:26 5.50656e-18 $lvl1=1 $lvl2=1
CD27 VDD!:4 n0:28 4.69665e-18 $lvl1=2 $lvl2=1
CD28 VDD!:15 n0:13 4.67002e-18 $lvl1=1 $lvl2=2
CD29 VDD! n0:30 4.33799e-18 $lvl1=1 $lvl2=1
CD30 VDD!:15 n0:12 3.81924e-18 $lvl1=1 $lvl2=2
CD31 VDD! n0:24 3.26232e-18 $lvl1=1 $lvl2=1
CD32 VDD! n0:9 2.8067e-18 $lvl1=1 $lvl2=3
CD33 VDD!:4 n0:30 2.61262e-18 $lvl1=2 $lvl2=1
CD34 VDD!:6 n0:12 2.39723e-18 $lvl1=2 $lvl2=2
CD35 VDD!:4 n0:13 2.25239e-18 $lvl1=2 $lvl2=2
CD36 VDD!:6 n0:28 1.84185e-18 $lvl1=2 $lvl2=1
CD37 VDD!:11 n0:12 1.64523e-18 $lvl1=2 $lvl2=2
CD38 VDD!:6 n0:30 1.63281e-18 $lvl1=2 $lvl2=1
CD39 VDD!:4 Mmp3:d 1.55494e-18 $lvl1=2 $lvl2=4
CD40 VDD! n0:21 1.51476e-18 $lvl1=1 $lvl2=2
CD41 VDD!:14 n0:28 1.49265e-18 $lvl1=1 $lvl2=1
CD42 VDD!:6 n0:13 1.38586e-18 $lvl1=2 $lvl2=2
CD43 VDD! n0:12 1.36727e-18 $lvl1=1 $lvl2=2
CD44 VDD!:15 n0:27 1.06126e-18 $lvl1=1 $lvl2=1
CD45 VDD!:13 n0:8 1.05261e-18 $lvl1=2 $lvl2=3
CD46 VDD!:11 n0:8 2.51599e-16 $lvl1=2 $lvl2=3
CD47 VDD!:11 n0:27 1.39358e-17 $lvl1=2 $lvl2=1
CD48 VDD! n0:27 1.18052e-17 $lvl1=1 $lvl2=1
CD49 VDD!:4 n0:12 2.21637e-17 $lvl1=2 $lvl2=2
CD50 VDD! n0:28 1.00525e-17 $lvl1=1 $lvl2=1
CD51 VDD!:15 n0:30 4.25226e-17 $lvl1=1 $lvl2=1
CD52 VDD!:15 n0:28 4.88553e-17 $lvl1=1 $lvl2=1
CD53 VDD!:11 n0:28 3.86791e-17 $lvl1=2 $lvl2=1
CD54 VDD!:11 n1:9 9.51217e-18 $lvl1=2 $lvl2=3
CD55 VDD! n1:27 8.56289e-18 $lvl1=1 $lvl2=1
CD56 VDD! n1:28 7.58721e-18 $lvl1=1 $lvl2=1
CD57 VDD!:11 n1:28 6.52151e-18 $lvl1=2 $lvl2=1
CD58 VDD! n1:30 6.23856e-18 $lvl1=1 $lvl2=1
CD59 VDD!:11 n1:21 6.16838e-18 $lvl1=2 $lvl2=2
CD60 VDD! n1:26 6.15207e-18 $lvl1=1 $lvl2=1
CD61 VDD!:3 n1:16 6.02828e-18 $lvl1=2 $lvl2=2
CD62 VDD! n1:9 5.91384e-18 $lvl1=1 $lvl2=3
CD63 VDD!:15 n1:28 5.7891e-18 $lvl1=1 $lvl2=1
CD64 VDD! n1:24 5.72484e-18 $lvl1=1 $lvl2=1
CD65 VDD!:15 n1:12 5.69728e-18 $lvl1=1 $lvl2=2
CD66 VDD!:3 n1:30 5.69339e-18 $lvl1=2 $lvl2=1
CD67 VDD!:3 n1:15 5.08513e-18 $lvl1=2 $lvl2=2
CD68 VDD!:11 n1:27 4.92172e-18 $lvl1=2 $lvl2=1
CD69 VDD!:11 n1:23 3.00484e-18 $lvl1=2 $lvl2=2
CD70 VDD!:6 n1:12 2.82244e-18 $lvl1=2 $lvl2=2
CD71 Mmp5:s n1:9 2.3506e-18 $lvl1=4 $lvl2=3
CD72 VDD!:15 n1:27 1.65811e-18 $lvl1=1 $lvl2=1
CD73 VDD!:4 Mmp4:d 1.55936e-18 $lvl1=2 $lvl2=4
CD74 VDD! n1:12 1.54326e-18 $lvl1=1 $lvl2=2
CD75 VDD!:15 n1:15 1.46808e-18 $lvl1=1 $lvl2=2
CD76 VDD! n1:23 1.2648e-18 $lvl1=1 $lvl2=2
CD77 VDD!:7 n1:12 6.78656e-19 $lvl1=4 $lvl2=2
CD78 VDD!:16 n1:30 6.47949e-19 $lvl1=1 $lvl2=1
CD79 VDD!:4 n1:8 1.09721e-17 $lvl1=2 $lvl2=3
CD80 VDD!:4 n1:12 2.1885e-17 $lvl1=2 $lvl2=2
CD81 VDD!:3 n1:12 4.4274e-17 $lvl1=2 $lvl2=2
CD82 VDD!:15 n1:30 1.15409e-17 $lvl1=1 $lvl2=1
CD83 VDD!:11 n1:8 7.35138e-17 $lvl1=2 $lvl2=3
CD84 VDD! n2:17 4.21663e-18 $lvl1=1 $lvl2=2
CD85 VDD!:16 n2:13 4.06316e-18 $lvl1=1 $lvl2=2
CD86 VDD! n2:10 3.61024e-18 $lvl1=1 $lvl2=3
CD87 VDD! n2:24 3.35036e-18 $lvl1=1 $lvl2=2
CD88 VDD!:7 n2:13 3.00425e-18 $lvl1=4 $lvl2=2
CD89 VDD! n2:19 2.5994e-18 $lvl1=1 $lvl2=2
CD90 VDD!:11 n2:8 2.58515e-18 $lvl1=2 $lvl2=3
CD91 VDD!:3 n2:14 2.53405e-18 $lvl1=2 $lvl2=2
CD92 VDD!:4 n2:33 2.34778e-18 $lvl1=2 $lvl2=1
CD93 VDD!:5 n2:33 2.24356e-18 $lvl1=2 $lvl2=1
CD94 VDD!:15 n2:13 2.12531e-18 $lvl1=1 $lvl2=2
CD95 VDD! n2:22 1.80077e-18 $lvl1=1 $lvl2=2
CD96 VDD!:16 n2:14 1.61963e-18 $lvl1=1 $lvl2=2
CD97 VDD!:6 n2:13 1.5062e-18 $lvl1=2 $lvl2=2
CD98 VDD!:15 n2:31 1.40069e-18 $lvl1=1 $lvl2=1
CD99 VDD!:15 n2:14 1.38082e-18 $lvl1=1 $lvl2=2
CD100 VDD!:6 n2:33 1.31766e-18 $lvl1=2 $lvl2=1
CD101 VDD!:4 Mmp1:d 1.25671e-18 $lvl1=2 $lvl2=4
CD102 VDD! n2:14 1.12636e-18 $lvl1=1 $lvl2=2
CD103 VDD!:5 n2:14 1.0648e-18 $lvl1=2 $lvl2=2
CD104 VDD! n2:25 1.00778e-18 $lvl1=1 $lvl2=2
CD105 VDD!:16 n2:31 9.11024e-19 $lvl1=1 $lvl2=1
CD106 VDD!:4 n2:14 9.06695e-19 $lvl1=2 $lvl2=2
CD107 VDD!:6 n2:14 7.91615e-19 $lvl1=2 $lvl2=2
CD108 VDD!:3 n2:31 7.7437e-19 $lvl1=2 $lvl2=1
CD109 VDD!:5 Mmp1:d 6.71844e-19 $lvl1=2 $lvl2=4
CD110 VDD!:16 n2:33 2.58083e-17 $lvl1=1 $lvl2=1
CD111 VDD!:3 n2:33 1.28881e-17 $lvl1=2 $lvl2=1
CD112 VDD! n2:33 3.61582e-17 $lvl1=1 $lvl2=1
CD113 VDD! n2:23 9.82883e-18 $lvl1=1 $lvl2=2
CD114 VDD! n2:31 2.41977e-17 $lvl1=1 $lvl2=1