*
*|DSPF 1.5
*
*|DATE "Wed Jan  8 18:19:25 2025"
*|VENDOR "Cadence Design Systems"
*|PROGRAM "Cadence Quantus Extraction"
*|VERSION "22.1.0-p089 Linux 64 bit - (Thu Jan 19 11:47:08 PST 2023)"
*|DESIGN XOR2X4_HS
*|DIVIDER /
*|DELIMITER :
*|DeviceFingerDelim "@"
*|BUSBIT []
*|GLOBAL_TEMPERATURE 25
*|OPERATING_TEMPERATURE 25

** *VIA_COVERAGE_CODES
** *index FF FS FP FU SF SS SP SU PF PS PP PU UF US UP UU X_by_Y
** * "FF" stands for Full landing and Full coverage
** *0 0 0 0 0 0 0 0 0 0 0 0 0 0 0 0 0
** *1 0 0 0 0 0 0 0 0 0 0 0 0 0 0 0 1 1x1
** *2 0 0 0 0 0 0 0 0 0 0 0 0 0 0 1 0 1x1
** *3 0 0 0 0 0 0 0 0 0 0 0 0 0 1 0 0 1x1
** *4 0 0 0 0 0 0 0 0 0 0 0 0 1 0 0 0 1x1
** *5 0 0 0 0 0 0 0 0 0 0 0 1 0 0 0 0 1x1
** *6 0 0 0 0 0 0 0 0 0 0 1 0 0 0 0 0 1x1
** *7 0 0 0 0 0 0 0 0 0 1 0 0 0 0 0 0 1x1
** *8 0 0 0 0 0 0 0 0 1 0 0 0 0 0 0 0 1x1
** *9 0 0 0 0 0 0 0 1 0 0 0 0 0 0 0 0 1x1
** *10 0 0 0 0 0 0 1 0 0 0 0 0 0 0 0 0 1x1
** *11 0 0 0 0 0 1 0 0 0 0 0 0 0 0 0 0 1x1
** *12 0 0 0 0 1 0 0 0 0 0 0 0 0 0 0 0 1x1
** *13 0 0 0 1 0 0 0 0 0 0 0 0 0 0 0 0 1x1
** *14 0 0 1 0 0 0 0 0 0 0 0 0 0 0 0 0 1x1
** *15 0 1 0 0 0 0 0 0 0 0 0 0 0 0 0 0 1x1
** *16 1 0 0 0 0 0 0 0 0 0 0 0 0 0 0 0 1x1

** *RESISTOR_TYPES
** *1 SHORTING_ELEMENT
** *2 PRES_NG
** *3 PRES_PG
** *4 PRES_NF
** *5 PRES_PF
** *6 TCN_NDIFF
** *7 TCN_PDIFF
** *8 TCN_NFIELD
** *9 TCN_PFIELD
** *10 QUALITY_EXTRACTED
** *11 GCNLAND
** *12 TCNLAND
** *13 DUMMY
** *14 RSD
** *15 BRIDGE

** *RESISTOR_CURRENT_DIRECTION
** *0 HORIZONTAL
** *1 VERTICAL
** *2 45 DEGREE

** QRC_TECH_DIR /vols/wfo_devel/projects/reference_SKY130/tech/sky130_release_0.0.4/quantus/extraction/typical 
** HIERARCHICAL_SPLIT_PINS_DELIMITER '%'
** caps2d version: 10
*
.SUBCKT  XOR2X4_HS A B Y
*
*Net Section
*
*|GROUND_NET VSS!
*
*LAYER_MAP
*0 none
*1 metal1
*2 li
*3 poly
*4 diff
*5 licon_diff
*6 mcon
*7 licon
*8 FOX

*|NET B 1.64857e-15
*|P (B X 0 0.9350 1.4700) // $llx=0.9350 $lly=1.4700 $urx=0.9350 $ury=1.4700 $lvl=1
*|I (Mmp4:g Mmp4 g X 0 1.8850 2.9550) // $llx=1.8850 $lly=2.9550 $urx=1.8850 $ury=2.9550 $lvl=3
*|I (Mmp1:g Mmp1 g X 0 0.9050 3.2950) // $llx=0.9050 $lly=3.2950 $urx=0.9050 $ury=3.2950 $lvl=3
*|I (Mmn3:g Mmn3 g X 0 1.8850 0.7750) // $llx=1.8850 $lly=0.7750 $urx=1.8850 $ury=0.7750 $lvl=3
*|I (Mmn1:g Mmn1 g X 0 0.9050 0.6075) // $llx=0.9050 $lly=0.6075 $urx=0.9050 $ury=0.6075 $lvl=3
*|S (B:15 1.8850 3.8350) // $llx=1.8850 $lly=3.8350 $urx=1.8850 $ury=3.8350 $lvl=3
*|S (B:16 1.8850 1.3600) // $llx=1.8850 $lly=1.3600 $urx=1.8850 $ury=1.3600 $lvl=3
*|S (B:17 0.9050 1.3600) // $llx=0.9050 $lly=1.3600 $urx=0.9050 $ury=1.3600 $lvl=3
*|S (B:18 0.9050 1.2700) // $llx=0.9050 $lly=1.2700 $urx=0.9050 $ury=1.2700 $lvl=3
*|S (B:19 0.9050 1.1050) // $llx=0.9050 $lly=1.1050 $urx=0.9050 $ury=1.1050 $lvl=3
*|S (B:20 1.8850 0.2450) // $llx=1.8850 $lly=0.2450 $urx=1.8850 $ury=0.2450 $lvl=3
*|S (B:21 0.9050 1.4345) // $llx=0.9050 $lly=1.4345 $urx=0.9050 $ury=1.4345 $lvl=3
*|S (B:22 0.9050 3.8350) // $llx=0.9050 $lly=3.8350 $urx=0.9050 $ury=3.8350 $lvl=3
*|S (B:23 0.9050 0.2450) // $llx=0.9050 $lly=0.2450 $urx=0.9050 $ury=0.2450 $lvl=3
*|S (B:24 1.1500 1.2700) // $llx=1.1500 $lly=1.2700 $urx=1.1500 $ury=1.2700 $lvl=2
*|S (B:25 0.9200 1.2700) // $llx=0.9200 $lly=1.2700 $urx=0.9200 $ury=1.2700 $lvl=2
*|S (B:26 0.9050 1.2700) // $llx=0.9050 $lly=1.2700 $urx=0.9050 $ury=1.2700 $lvl=2
*|S (B:27 0.7150 1.2700) // $llx=0.7150 $lly=1.2700 $urx=0.7150 $ury=1.2700 $lvl=2
*|S (B:28 0.9200 1.8050) // $llx=0.9200 $lly=1.8050 $urx=0.9200 $ury=1.8050 $lvl=1
*|S (B:29 0.9200 1.2700) // $llx=0.9200 $lly=1.2700 $urx=0.9200 $ury=1.2700 $lvl=1
*|S (B:30 0.9200 0.8750) // $llx=0.9200 $lly=0.8750 $urx=0.9200 $ury=0.8750 $lvl=1
CB1 Mmn1:g VSS! 1.53615e-18 $lvl=3
CB2 Mmn3:g VSS! 4.44062e-18 $lvl=3
CB3 Mmp1:g VSS! 1.37997e-18 $lvl=3
CB4 Mmp4:g VSS! 3.63772e-18 $lvl=3
CB5 B:30 VSS! 6.91123e-18 $lvl=1
CB6 B:24 VSS! 4.53595e-18 $lvl=2
CB7 B:27 VSS! 3.1508e-18 $lvl=2
CB8 B:25 VSS! 5.03102e-18 $lvl=2
CB9 B:18 VSS! 2.42584e-17 $lvl=3
CB10 B VSS! 1.01777e-17 $lvl=1
CB11 B:24 net131 4.53116e-18 $lvl1=2 $lvl2=2
CB12 B:18 net131 3.263e-18 $lvl1=3 $lvl2=2
CB13 Mmn1:g net131 1.0344e-18 $lvl1=3 $lvl2=2
CB14 Mmn3:g net131 1.27307e-16 $lvl1=3 $lvl2=2
CB15 Mmn3:g n0:46 1.26721e-16 $lvl1=3 $lvl2=2
CB16 Mmp4:g n0:42 2.52191e-16 $lvl1=3 $lvl2=2
CB17 B:27 n1:22 7.82993e-18 $lvl1=2 $lvl2=2
CB18 B n1:23 6.30452e-18 $lvl1=1 $lvl2=2
CB19 B:27 n1:23 6.27899e-18 $lvl1=2 $lvl2=2
CB20 B n1:21 6.17615e-18 $lvl1=1 $lvl2=2
CB21 B:25 n1:22 5.49406e-18 $lvl1=2 $lvl2=2
CB22 B:18 n1:23 4.31069e-18 $lvl1=3 $lvl2=2
CB23 Mmp1:g n1:27 3.45568e-18 $lvl1=3 $lvl2=2
CB24 B:30 n1:26 3.41046e-18 $lvl1=1 $lvl2=2
CB25 Mmp4:g n1:20 3.10657e-18 $lvl1=3 $lvl2=2
CB26 B:30 n1:23 2.32449e-18 $lvl1=1 $lvl2=2
CB27 B:27 n1:26 2.14784e-18 $lvl1=2 $lvl2=2
CB28 B n1:26 2.14598e-18 $lvl1=1 $lvl2=2
CB29 B:18 n1:26 2.11225e-18 $lvl1=3 $lvl2=2
CB30 B:25 n1:23 1.97835e-18 $lvl1=2 $lvl2=2
CB31 Mmp1:g n1:28 1.68327e-18 $lvl1=3 $lvl2=2
CB32 B n1:38 1.62818e-18 $lvl1=1 $lvl2=1
CB33 B:18 n1:21 1.45605e-18 $lvl1=3 $lvl2=2
CB34 B n1:36 1.28097e-18 $lvl1=1 $lvl2=1
CB35 B:30 n1:36 1.01375e-18 $lvl1=1 $lvl2=1
CB36 B:25 n1:26 1.00283e-18 $lvl1=2 $lvl2=2
CB37 B n1:28 8.76243e-19 $lvl1=1 $lvl2=2
CB38 Mmp1:g n1:31 8.34255e-19 $lvl1=3 $lvl2=2
CB39 B:24 n1:36 7.60017e-19 $lvl1=2 $lvl2=1
CB40 Mmn1:g n1:26 7.02414e-19 $lvl1=3 $lvl2=2
CB41 B:18 n1:20 6.39676e-19 $lvl1=3 $lvl2=2
CB42 B n1:27 5.51737e-19 $lvl1=1 $lvl2=2
CB43 B:24 n1:26 5.09555e-19 $lvl1=2 $lvl2=2
CB44 B:18 n1:27 4.96824e-19 $lvl1=3 $lvl2=2
CB45 B:24 n1:22 1.0806e-17 $lvl1=2 $lvl2=2
CB46 Mmp4:g n1:27 2.53931e-16 $lvl1=3 $lvl2=2
CB47 B n1:22 8.93359e-18 $lvl1=1 $lvl2=2
CB48 B:18 n1:22 9.23464e-18 $lvl1=3 $lvl2=2
CB49 B:18 n2:18 5.06229e-18 $lvl1=3 $lvl2=2
CB50 B:24 n2:18 4.83323e-18 $lvl1=2 $lvl2=2
CB51 B:30 n2:26 4.60452e-18 $lvl1=1 $lvl2=1
CB52 B n2:24 4.5904e-18 $lvl1=1 $lvl2=2
CB53 B:18 n2:25 4.39452e-18 $lvl1=3 $lvl2=2
CB54 B:24 n2:24 3.84401e-18 $lvl1=2 $lvl2=2
CB55 B:30 n2:18 3.54151e-18 $lvl1=1 $lvl2=2
CB56 B:25 n2:28 3.29693e-18 $lvl1=2 $lvl2=1
CB57 B:24 n2:28 2.86329e-18 $lvl1=2 $lvl2=1
CB58 B n2:27 2.69691e-18 $lvl1=1 $lvl2=1
CB59 B:25 n2:24 2.17978e-18 $lvl1=2 $lvl2=2
CB60 B n2:31 1.72681e-18 $lvl1=1 $lvl2=1
CB61 B:30 n2:21 1.64797e-18 $lvl1=1 $lvl2=2
CB62 B:25 n2:18 1.50568e-18 $lvl1=2 $lvl2=2
CB63 B n2:25 1.27152e-18 $lvl1=1 $lvl2=2
CB64 Mmn3:g n2:10 1.11952e-18 $lvl1=3 $lvl2=3
CB65 B:25 n2:25 1.10689e-18 $lvl1=2 $lvl2=2
CB66 Mmp1:g n2:17 1.10258e-18 $lvl1=3 $lvl2=2
CB67 B:24 n2:27 1.02663e-18 $lvl1=2 $lvl2=1
CB68 B n2:26 9.86419e-19 $lvl1=1 $lvl2=1
CB69 B:25 n2:27 9.32945e-19 $lvl1=2 $lvl2=1
CB70 B:18 Mmn1:d 9.30956e-19 $lvl1=3 $lvl2=4
CB71 Mmp4:g n2:10 8.3118e-19 $lvl1=3 $lvl2=3
CB72 Mmn3:g n2:25 8.24153e-19 $lvl1=3 $lvl2=2
CB73 Mmn3:g n2:23 8.13824e-19 $lvl1=3 $lvl2=2
CB74 B:27 n2:18 7.73647e-19 $lvl1=2 $lvl2=2
CB75 Mmn1:g n2:18 6.96943e-17 $lvl1=3 $lvl2=2
CB76 Mmp1:g n2:13 1.301e-16 $lvl1=3 $lvl2=2
CB77 B:30 n2:28 1.29808e-17 $lvl1=1 $lvl2=1
CB78 B:24 n2:25 9.43287e-18 $lvl1=2 $lvl2=2
CB79 B n2:30 2.58851e-17 $lvl1=1 $lvl2=1
CB80 B n2:28 6.8857e-17 $lvl1=1 $lvl2=1
CB81 B:30 n2:27 3.67865e-17 $lvl1=1 $lvl2=1
CB82 B:30 VSS!:23 6.03967e-18 $lvl1=1 $lvl2=1
CB83 B:30 VSS!:21 5.48325e-18 $lvl1=1 $lvl2=2
CB84 B:18 VSS!:21 4.19804e-18 $lvl1=3 $lvl2=2
CB85 B VSS!:23 2.94881e-18 $lvl1=1 $lvl2=1
CB86 B:27 VSS!:21 2.6655e-18 $lvl1=2 $lvl2=2
CB87 B:24 VSS!:21 2.16026e-18 $lvl1=2 $lvl2=2
CB88 B:30 VSS!:24 2.03908e-18 $lvl1=1 $lvl2=1
CB89 Mmn1:g VSS!:10 8.81011e-18 $lvl1=3 $lvl2=2
CB90 Mmn1:g VSS!:21 6.53528e-17 $lvl1=3 $lvl2=2
CB91 Mmn3:g VSS!:10 8.73703e-18 $lvl1=3 $lvl2=2
CB92 Mmp4:g VDD!:4 8.04424e-18 $lvl1=3 $lvl2=2
CB93 Mmp1:g VDD!:4 7.9e-18 $lvl1=3 $lvl2=2
CB94 B:30 VDD! 5.43416e-18 $lvl1=1 $lvl2=1
CB95 Mmp1:g VDD!:1 1.29198e-16 $lvl1=3 $lvl2=2
CB96 B VDD! 9.58786e-18 $lvl1=1 $lvl2=1
ReB15 B:28 B 0.161058 $metal1  $L=0.335 $W=0.260000 $SI_W=0.26 $TYPE=10 $DIR=1 $LLX=0.790000 $LLY=1.470000 $URX=1.050000 $URY=1.805000 $lvl=1
ReB16 B B:29 0.096154 $metal1  $L=0.2 $W=0.260000 $SI_W=0.26 $TYPE=10 $DIR=1 $LLX=0.805000 $LLY=1.270000 $URX=1.065000 $URY=1.470000 $lvl=1
ReB17 B:29 B:30 0.189904 $metal1  $L=0.395 $W=0.260000 $SI_W=0.26 $TYPE=10 $DIR=1 $LLX=0.790000 $LLY=0.875000 $URX=1.050000 $URY=1.270000 $lvl=1
RfB18 B:24 B:25 17.317646 $li  $L=0.23 $W=0.170000 $SI_W=0.17 $TYPE=10 $DIR=0 $LLX=0.920000 $LLY=1.185000 $URX=1.150000 $URY=1.355000 $lvl=2
RfB19 B:25 B:26 1.129412 $li  $L=0.015 $W=1000000 $SI_W=1000000 $TYPE=1,10 $DIR=0 $LLX=0.905000 $LLY=1.185000 $URX=0.920000 $URY=1.355000 $lvl=2
RfB20 B:26 B:27 14.305882 $li  $L=0.19 $W=0.170000 $SI_W=0.17 $TYPE=10 $DIR=0 $LLX=0.715000 $LLY=1.185000 $URX=0.905000 $URY=1.355000 $lvl=2
RgB21 B:15 Mmp4:g 282.773346 $poly  $L=0.88 $W=0.150000 $SI_W=0.15 $TYPE=10 $DIR=1 $LLX=1.810000 $LLY=2.955000 $URX=1.960000 $URY=3.835000 $lvl=3
RgB22 Mmp4:g B:16 512.446350 $poly  $L=1.59475 $W=0.150000 $SI_W=0.15 $TYPE=10 $DIR=1 $LLX=1.810000 $LLY=1.360000 $URX=1.960000 $URY=2.955000 $lvl=3
RgB23 B:16 B:17 314.987000 $poly  $L=0.98025 $W=0.150000 $SI_W=0.15 $TYPE=10 $DIR=0 $LLX=0.905000 $LLY=1.285000 $URX=1.885000 $URY=1.435000 $lvl=3
RgB24 B:17 B:18 16.066668 $poly  $L=0.09 $W=0.270000 $SI_W=0.27 $TYPE=10 $DIR=1 $LLX=0.770000 $LLY=1.270000 $URX=1.040000 $URY=1.360000 $lvl=3
RgB25 B:18 B:19 29.410925 $poly  $L=0.1645 $W=0.270000 $SI_W=0.27 $TYPE=10 $DIR=1 $LLX=0.770000 $LLY=1.105500 $URX=1.040000 $URY=1.270000 $lvl=3
RgB26 B:19 Mmn1:g 159.907959 $poly  $L=0.4975 $W=0.150000 $SI_W=0.15 $TYPE=10 $DIR=1 $LLX=0.830000 $LLY=0.607500 $URX=0.980000 $URY=1.105000 $lvl=3
RgB27 B:16 Mmn3:g 188.060333 $poly  $L=0.58525 $W=0.150000 $SI_W=0.15 $TYPE=10 $DIR=1 $LLX=1.810000 $LLY=0.775000 $URX=1.960000 $URY=1.360000 $lvl=3
RgB28 Mmn3:g B:20 170.306671 $poly  $L=0.53 $W=0.150000 $SI_W=0.15 $TYPE=10 $DIR=1 $LLX=1.810000 $LLY=0.245000 $URX=1.960000 $URY=0.775000 $lvl=3
RgB29 B:17 B:21 13.397636 $poly  $L=0.0745 $W=0.270000 $SI_W=0.27 $TYPE=10 $DIR=1 $LLX=0.770000 $LLY=1.360000 $URX=1.040000 $URY=1.434500 $lvl=3
RgB30 B:21 Mmp1:g 597.724609 $poly  $L=1.86 $W=0.150000 $SI_W=0.15 $TYPE=10 $DIR=1 $LLX=0.830000 $LLY=1.434500 $URX=0.980000 $URY=3.294500 $lvl=3
RgB31 Mmp1:g B:22 173.519989 $poly  $L=0.54 $W=0.150000 $SI_W=0.15 $TYPE=10 $DIR=1 $LLX=0.830000 $LLY=3.295000 $URX=0.980000 $URY=3.835000 $lvl=3
RgB32 Mmn1:g B:23 116.483322 $poly  $L=0.3625 $W=0.150000 $SI_W=0.15 $TYPE=10 $DIR=1 $LLX=0.830000 $LLY=0.245000 $URX=0.980000 $URY=0.607500 $lvl=3
RjB33 B:25 B:29 152.000000 $mcon  $L=0.17 $W=0.17 $A=0.0289 $VC=0 $SAVL=0 $SAVC=0 $SI_A=0.0289 $COVER_DIR=0 $LLX=0.000000 $LLY=0.000000 $URX=0.170000 $URY=0.170000 $lvl=6
RiB34 B:18 B:26 15.000000 $licon  $L=0.17 $W=0.17 $A=0.0289 $VC=0 $SAVL=0 $SAVC=0 $SI_A=0.0289 $COVER_DIR=0 $LLX=0.000000 $LLY=0.000000 $URX=0.170000 $URY=0.170000 $lvl=7
*
*|NET A 8.21704e-16
*|P (A X 0 0.4750 2.4300) // $llx=0.4750 $lly=2.4300 $urx=0.4750 $ury=2.4300 $lvl=1
*|I (Mmp0:g Mmp0 g X 0 0.4750 3.2950) // $llx=0.4750 $lly=3.2950 $urx=0.4750 $ury=3.2950 $lvl=3
*|I (Mmn0:g Mmn0 g X 0 0.4750 0.6075) // $llx=0.4750 $lly=0.6075 $urx=0.4750 $ury=0.6075 $lvl=3
*|S (A:8 0.4750 3.8350) // $llx=0.4750 $lly=3.8350 $urx=0.4750 $ury=3.8350 $lvl=3
*|S (A:9 0.4150 2.2995) // $llx=0.4150 $lly=2.2995 $urx=0.4150 $ury=2.2995 $lvl=3
*|S (A:10 0.4150 2.1350) // $llx=0.4150 $lly=2.1350 $urx=0.4150 $ury=2.1350 $lvl=3
*|S (A:11 0.4150 1.9700) // $llx=0.4150 $lly=1.9700 $urx=0.4150 $ury=1.9700 $lvl=3
*|S (A:12 0.4750 0.2450) // $llx=0.4750 $lly=0.2450 $urx=0.4750 $ury=0.2450 $lvl=3
*|S (A:13 0.6100 2.1350) // $llx=0.6100 $lly=2.1350 $urx=0.6100 $ury=2.1350 $lvl=2
*|S (A:14 0.4450 2.1350) // $llx=0.4450 $lly=2.1350 $urx=0.4450 $ury=2.1350 $lvl=2
*|S (A:15 0.4150 2.1350) // $llx=0.4150 $lly=2.1350 $urx=0.4150 $ury=2.1350 $lvl=2
*|S (A:16 0.2000 2.1350) // $llx=0.2000 $lly=2.1350 $urx=0.2000 $ury=2.1350 $lvl=2
*|S (A:17 0.4600 3.1350) // $llx=0.4600 $lly=3.1350 $urx=0.4600 $ury=3.1350 $lvl=1
*|S (A:18 0.4450 2.1350) // $llx=0.4450 $lly=2.1350 $urx=0.4450 $ury=2.1350 $lvl=1
*|S (A:19 0.4600 1.8950) // $llx=0.4600 $lly=1.8950 $urx=0.4600 $ury=1.8950 $lvl=1
CA1 A:8 VSS! 1.61118e-18 $lvl=3
CA2 A:12 VSS! 2.15045e-18 $lvl=3
CA3 A:18 VSS! 7.51069e-18 $lvl=1
CA4 A:13 VSS! 2.337e-18 $lvl=2
CA5 A:16 VSS! 3.48178e-18 $lvl=2
CA6 A:14 VSS! 2.08132e-18 $lvl=2
CA7 A:10 VSS! 1.29087e-17 $lvl=3
CA8 A VSS! 7.7908e-18 $lvl=1
CA9 A:10 n1:21 3.75264e-18 $lvl1=3 $lvl2=2
CA10 A:13 n1:23 3.74432e-18 $lvl1=2 $lvl2=2
CA11 A:18 n1:21 3.03831e-18 $lvl1=1 $lvl2=2
CA12 A:14 n1:23 2.95646e-18 $lvl1=2 $lvl2=2
CA13 A:8 n1:28 2.9143e-18 $lvl1=3 $lvl2=2
CA14 A n1:27 2.25812e-18 $lvl1=1 $lvl2=2
CA15 A:18 n1:22 2.25266e-18 $lvl1=1 $lvl2=2
CA16 A:10 n1:22 2.23163e-18 $lvl1=3 $lvl2=2
CA17 A:13 n1:22 2.14907e-18 $lvl1=2 $lvl2=2
CA18 A:14 n1:21 1.98007e-18 $lvl1=2 $lvl2=2
CA19 A:18 n1:26 1.65307e-18 $lvl1=1 $lvl2=2
CA20 A:12 n1:23 1.5246e-18 $lvl1=3 $lvl2=2
CA21 A:10 n1:31 1.46915e-18 $lvl1=3 $lvl2=2
CA22 A:10 n1:27 1.43595e-18 $lvl1=3 $lvl2=2
CA23 A n1:23 1.35042e-18 $lvl1=1 $lvl2=2
CA24 A:18 n1:31 1.30595e-18 $lvl1=1 $lvl2=2
CA25 A:18 n1:27 1.05593e-18 $lvl1=1 $lvl2=2
CA26 A:13 n1:27 8.99633e-19 $lvl1=2 $lvl2=2
CA27 A:14 n1:22 8.34248e-19 $lvl1=2 $lvl2=2
CA28 A n1:21 8.0492e-19 $lvl1=1 $lvl2=2
CA29 A:16 n1:31 7.47715e-19 $lvl1=2 $lvl2=2
CA30 A:18 n1:38 6.84584e-19 $lvl1=1 $lvl2=1
CA31 A n1:38 6.70286e-19 $lvl1=1 $lvl2=1
CA32 A n1:26 6.10934e-19 $lvl1=1 $lvl2=2
CA33 A:10 Mmp0:d 5.09154e-19 $lvl1=3 $lvl2=4
CA34 A:10 n1:26 4.55816e-19 $lvl1=3 $lvl2=2
CA35 A:8 n1:27 4.1246e-19 $lvl1=3 $lvl2=2
CA36 A:16 n1:26 3.49132e-19 $lvl1=2 $lvl2=2
CA37 A:10 n1:20 3.00262e-19 $lvl1=3 $lvl2=2
CA38 A:18 n1:36 2.853e-19 $lvl1=1 $lvl2=1
CA39 A:10 n1:28 1.48402e-17 $lvl1=3 $lvl2=2
CA40 A:14 n1:28 7.48967e-18 $lvl1=2 $lvl2=2
CA41 A:16 n1:28 9.95462e-18 $lvl1=2 $lvl2=2
CA42 A:10 n1:23 6.80056e-18 $lvl1=3 $lvl2=2
CA43 A n1:31 2.00844e-17 $lvl1=1 $lvl2=2
CA44 A n1:28 2.28299e-17 $lvl1=1 $lvl2=2
CA45 A:13 n1:28 2.09632e-17 $lvl1=2 $lvl2=2
CA46 A:16 n1:23 4.84862e-18 $lvl1=2 $lvl2=2
CA47 A:18 n1:23 8.35623e-18 $lvl1=1 $lvl2=2
CA48 A:12 n1:26 6.9974e-17 $lvl1=3 $lvl2=2
CA49 A:18 n1:28 5.22001e-18 $lvl1=1 $lvl2=2
CA50 A:13 n1:21 9.08552e-18 $lvl1=2 $lvl2=2
CA51 A:8 n1:31 1.33172e-16 $lvl1=3 $lvl2=2
CA52 A:18 n2:31 3.35029e-18 $lvl1=1 $lvl2=1
CA53 A n2:16 1.73255e-18 $lvl1=1 $lvl2=2
CA54 A n2:13 1.30202e-18 $lvl1=1 $lvl2=2
CA55 A n2:17 1.25646e-18 $lvl1=1 $lvl2=2
CA56 A:18 n2:28 1.057e-18 $lvl1=1 $lvl2=1
CA57 A:12 n2:18 7.22134e-19 $lvl1=3 $lvl2=2
CA58 A:8 n2:13 6.20689e-19 $lvl1=3 $lvl2=2
CA59 A:14 n2:30 5.61617e-19 $lvl1=2 $lvl2=1
CA60 A:18 n2:32 5.23081e-19 $lvl1=1 $lvl2=1
CA61 A n2:28 4.83881e-19 $lvl1=1 $lvl2=1
CA62 A:13 n2:30 4.25441e-19 $lvl1=2 $lvl2=1
CA63 A n2:32 1.05323e-17 $lvl1=1 $lvl2=1
CA64 A n2:30 5.62851e-18 $lvl1=1 $lvl2=1
CA65 A n2:31 1.75404e-17 $lvl1=1 $lvl2=1
CA66 A:18 n2:30 6.78651e-18 $lvl1=1 $lvl2=1
CA67 A:18 VSS!:23 1.68255e-18 $lvl1=1 $lvl2=1
CA68 A VSS!:23 1.27457e-18 $lvl1=1 $lvl2=1
CA69 A:18 VSS!:24 1.25983e-18 $lvl1=1 $lvl2=1
CA70 A:12 VSS!:10 8.07839e-18 $lvl1=3 $lvl2=2
CA71 A:12 VSS!:21 6.53109e-17 $lvl1=3 $lvl2=2
CA72 A:18 VDD!:23 1.64151e-18 $lvl1=1 $lvl2=1
CA73 A:14 VDD! 1.3084e-18 $lvl1=2 $lvl2=1
CA74 A VDD!:4 9.72821e-19 $lvl1=1 $lvl2=2
CA75 A VDD!:5 9.13829e-19 $lvl1=1 $lvl2=2
CA76 A:13 VDD! 9.11904e-19 $lvl1=2 $lvl2=1
CA77 A:18 VDD!:24 8.13752e-19 $lvl1=1 $lvl2=1
CA78 A:10 VDD!:1 8.05702e-19 $lvl1=3 $lvl2=2
CA79 A VDD!:1 1.38729e-17 $lvl1=1 $lvl2=2
CA80 A:16 VDD! 4.72055e-18 $lvl1=2 $lvl2=1
CA81 A:18 VDD! 1.60956e-17 $lvl1=1 $lvl2=1
CA82 A VDD!:23 1.08922e-17 $lvl1=1 $lvl2=1
CA83 A VDD!:24 5.61099e-18 $lvl1=1 $lvl2=1
CA84 A:10 VDD! 1.72749e-17 $lvl1=3 $lvl2=1
CA85 A:8 VDD!:4 6.31851e-18 $lvl1=3 $lvl2=2
CA86 A VDD! 2.57268e-17 $lvl1=1 $lvl2=1
CA87 A:8 VDD!:1 1.31362e-16 $lvl1=3 $lvl2=2
CA88 A B 2.77501e-18 $lvl1=1 $lvl2=1
CA89 A:12 B:18 1.99326e-18 $lvl1=3 $lvl2=3
CA90 A:18 B:30 1.43509e-18 $lvl1=1 $lvl2=1
CA91 A:10 B:18 1.336e-18 $lvl1=3 $lvl2=3
CA92 A:14 B 1.30369e-18 $lvl1=2 $lvl2=1
CA93 A:13 B 7.59976e-19 $lvl1=2 $lvl2=1
CA94 A:10 Mmp1:g 5.89177e-19 $lvl1=3 $lvl2=3
CA95 A B:30 4.59354e-19 $lvl1=1 $lvl2=1
CA96 A:18 B 2.35519e-17 $lvl1=1 $lvl2=1
ReA1 A:17 A 0.338942 $metal1  $L=0.705 $W=0.260000 $SI_W=0.26 $TYPE=10 $DIR=1 $LLX=0.330000 $LLY=2.430000 $URX=0.590000 $URY=3.135000 $lvl=1
ReA2 A A:18 0.141827 $metal1  $L=0.295 $W=0.260000 $SI_W=0.26 $TYPE=10 $DIR=1 $LLX=0.330000 $LLY=2.135000 $URX=0.590000 $URY=2.430000 $lvl=1
ReA3 A:18 A:19 0.115385 $metal1  $L=0.24 $W=0.260000 $SI_W=0.26 $TYPE=10 $DIR=1 $LLX=0.315000 $LLY=1.895000 $URX=0.575000 $URY=2.135000 $lvl=1
RfA4 A:13 A:14 12.423529 $li  $L=0.165 $W=0.170000 $SI_W=0.17 $TYPE=10 $DIR=0 $LLX=0.445000 $LLY=2.050000 $URX=0.610000 $URY=2.220000 $lvl=2
RfA5 A:14 A:15 2.258824 $li  $L=0.03 $W=1000000 $SI_W=1000000 $TYPE=1,10 $DIR=0 $LLX=0.415000 $LLY=2.050000 $URX=0.445000 $URY=2.220000 $lvl=2
RfA6 A:15 A:16 16.188236 $li  $L=0.215 $W=0.170000 $SI_W=0.17 $TYPE=10 $DIR=0 $LLX=0.200000 $LLY=2.050000 $URX=0.415000 $URY=2.220000 $lvl=2
RgA7 A:8 Mmp0:g 173.519989 $poly  $L=0.54 $W=0.150000 $SI_W=0.15 $TYPE=10 $DIR=1 $LLX=0.400000 $LLY=3.295000 $URX=0.550000 $URY=3.835000 $lvl=3
RgA8 Mmp0:g A:9 319.771301 $poly  $L=0.995 $W=0.150000 $SI_W=0.15 $TYPE=10 $DIR=1 $LLX=0.400000 $LLY=2.299500 $URX=0.550000 $URY=3.294500 $lvl=3
RgA9 A:9 A:10 38.857975 $poly  $L=0.1645 $W=0.270000 $SI_W=0.27 $TYPE=10 $DIR=1 $LLX=0.280000 $LLY=2.134500 $URX=0.550000 $URY=2.299500 $lvl=3
RgA10 A:10 A:11 29.410927 $poly  $L=0.1645 $W=0.270000 $SI_W=0.27 $TYPE=10 $DIR=1 $LLX=0.280000 $LLY=1.970500 $URX=0.550000 $URY=2.134500 $lvl=3
RgA11 A:11 Mmn0:g 437.861298 $poly  $L=1.3625 $W=0.150000 $SI_W=0.15 $TYPE=10 $DIR=1 $LLX=0.400000 $LLY=0.607500 $URX=0.550000 $URY=1.970000 $lvl=3
RgA12 Mmn0:g A:12 116.483322 $poly  $L=0.3625 $W=0.150000 $SI_W=0.15 $TYPE=10 $DIR=1 $LLX=0.400000 $LLY=0.245000 $URX=0.550000 $URY=0.607500 $lvl=3
RjA13 A:14 A:18 152.000000 $mcon  $L=0.17 $W=0.17 $A=0.0289 $VC=0 $SAVL=0 $SAVC=0 $SI_A=0.0289 $COVER_DIR=0 $LLX=0.000000 $LLY=0.000000 $URX=0.170000 $URY=0.170000 $lvl=6
RiA14 A:10 A:15 15.000000 $licon  $L=0.17 $W=0.17 $A=0.0289 $VC=0 $SAVL=0 $SAVC=0 $SI_A=0.0289 $COVER_DIR=0 $LLX=0.000000 $LLY=0.000000 $URX=0.170000 $URY=0.170000 $lvl=7
*
*|NET VSS! 3.32943e-15
*|P (VSS! X 0 2.5950 0.0050) // $llx=2.5950 $lly=0.0050 $urx=2.5950 $ury=0.0050 $lvl=1
*|I (Mmn5:s Mmn5 s X 0 3.6195 0.7750) // $llx=3.6195 $lly=0.7750 $urx=3.6195 $ury=0.7750 $lvl=4
*|I (Mmn5:b Mmn5 b X 0 3.6950 0.7750) // $llx=3.6950 $lly=0.7750 $urx=3.6950 $ury=0.7750 $lvl=8
*|I (Mmn5@1:s Mmn5@1 s X 0 4.2005 0.7750) // $llx=4.2005 $lly=0.7750 $urx=4.2005 $ury=0.7750 $lvl=4
*|I (Mmn5@1:b Mmn5@1 b X 0 4.1250 0.7750) // $llx=4.1250 $lly=0.7750 $urx=4.1250 $ury=0.7750 $lvl=8
*|I (Mmn5@2:s Mmn5@2 s X 0 4.4795 0.7750) // $llx=4.4795 $lly=0.7750 $urx=4.4795 $ury=0.7750 $lvl=4
*|I (Mmn5@2:b Mmn5@2 b X 0 4.5550 0.7750) // $llx=4.5550 $lly=0.7750 $urx=4.5550 $ury=0.7750 $lvl=8
*|I (Mmn5@3:s Mmn5@3 s X 0 5.0605 0.7750) // $llx=5.0605 $lly=0.7750 $urx=5.0605 $ury=0.7750 $lvl=4
*|I (Mmn5@3:b Mmn5@3 b X 0 4.9850 0.7750) // $llx=4.9850 $lly=0.7750 $urx=4.9850 $ury=0.7750 $lvl=8
*|I (Mmn3:b Mmn3 b X 0 1.8850 0.7750) // $llx=1.8850 $lly=0.7750 $urx=1.8850 $ury=0.7750 $lvl=8
*|I (Mmn4:b Mmn4 b X 0 2.3150 0.7750) // $llx=2.3150 $lly=0.7750 $urx=2.3150 $ury=0.7750 $lvl=8
*|I (Mmn1:s Mmn1 s X 0 0.8295 0.6075) // $llx=0.8295 $lly=0.6075 $urx=0.8295 $ury=0.6075 $lvl=4
*|I (Mmn1:b Mmn1 b X 0 0.9050 0.6075) // $llx=0.9050 $lly=0.6075 $urx=0.9050 $ury=0.6075 $lvl=8
*|I (Mmn2:s Mmn2 s X 0 3.3405 0.7750) // $llx=3.3405 $lly=0.7750 $urx=3.3405 $ury=0.7750 $lvl=4
*|I (Mmn2:b Mmn2 b X 0 3.2650 0.7750) // $llx=3.2650 $lly=0.7750 $urx=3.2650 $ury=0.7750 $lvl=8
*|I (Mmn0:s Mmn0 s X 0 0.5505 0.6075) // $llx=0.5505 $lly=0.6075 $urx=0.5505 $ury=0.6075 $lvl=4
*|I (Mmn0:b Mmn0 b X 0 0.4750 0.6075) // $llx=0.4750 $lly=0.6075 $urx=0.4750 $ury=0.6075 $lvl=8
*|S (VSS!:1 5.2000 1.1550) // $llx=5.2000 $lly=1.1550 $urx=5.2000 $ury=1.1550 $lvl=2
*|S (VSS!:3 5.2000 0.7750) // $llx=5.2000 $lly=0.7750 $urx=5.2000 $ury=0.7750 $lvl=2
*|S (VSS!:4 5.2000 0.0000) // $llx=5.2000 $lly=0.0000 $urx=5.2000 $ury=0.0000 $lvl=2
*|S (VSS!:5 4.3400 0.0000) // $llx=4.3400 $lly=0.0000 $urx=4.3400 $ury=0.0000 $lvl=2
*|S (VSS!:6 3.4800 0.0000) // $llx=3.4800 $lly=0.0000 $urx=3.4800 $ury=0.0000 $lvl=2
*|S (VSS!:7 2.7600 0.0000) // $llx=2.7600 $lly=0.0000 $urx=2.7600 $ury=0.0000 $lvl=2
*|S (VSS!:8 2.7600 0.0000) // $llx=2.7600 $lly=0.0000 $urx=2.7600 $ury=0.0000 $lvl=4
*|S (VSS!:10 0.6900 0.0000) // $llx=0.6900 $lly=0.0000 $urx=0.6900 $ury=0.0000 $lvl=2
*|S (VSS!:11 0.0000 0.0000) // $llx=0.0000 $lly=0.0000 $urx=0.0000 $ury=0.0000 $lvl=2
*|S (VSS!:12 5.5195 0.0000) // $llx=5.5195 $lly=0.0000 $urx=5.5195 $ury=0.0000 $lvl=2
*|S (VSS!:14 4.3400 0.7750) // $llx=4.3400 $lly=0.7750 $urx=4.3400 $ury=0.7750 $lvl=2
*|S (VSS!:15 4.3400 1.1550) // $llx=4.3400 $lly=1.1550 $urx=4.3400 $ury=1.1550 $lvl=2
*|S (VSS!:17 3.4800 0.7750) // $llx=3.4800 $lly=0.7750 $urx=3.4800 $ury=0.7750 $lvl=2
*|S (VSS!:18 3.4800 1.1550) // $llx=3.4800 $lly=1.1550 $urx=3.4800 $ury=1.1550 $lvl=2
*|S (VSS!:20 0.6900 0.6050) // $llx=0.6900 $lly=0.6050 $urx=0.6900 $ury=0.6050 $lvl=2
*|S (VSS!:21 0.6900 0.8200) // $llx=0.6900 $lly=0.8200 $urx=0.6900 $ury=0.8200 $lvl=2
*|S (VSS!:22 5.5200 0.0000) // $llx=5.5200 $lly=0.0000 $urx=5.5200 $ury=0.0000 $lvl=1
*|S (VSS!:23 2.7600 0.0000) // $llx=2.7600 $lly=0.0000 $urx=2.7600 $ury=0.0000 $lvl=1
*|S (VSS!:24 0.0000 0.0000) // $llx=0.0000 $lly=0.0000 $urx=0.0000 $ury=0.0000 $lvl=1
ReE103 VSS!:22 VSS!:23 0.862500 $metal1  $L=2.76 $W=0.400000 $SI_W=0.4 $TYPE=10 $DIR=0 $LLX=2.760000 $LLY=-0.199500 $URX=5.520000 $URY=0.200000 $lvl=1
ReE104 VSS!:23 VSS! 0.051562 $metal1  $L=0.165 $W=0.400000 $SI_W=0.4 $TYPE=10 $DIR=0 $LLX=2.595000 $LLY=-0.199500 $URX=2.760000 $URY=0.200000 $lvl=1
ReE105 VSS! VSS!:24 0.810937 $metal1  $L=2.595 $W=0.400000 $SI_W=0.4 $TYPE=10 $DIR=0 $LLX=0.000000 $LLY=-0.199500 $URX=2.595000 $URY=0.200000 $lvl=1
RfE106 VSS!:1 VSS!:3 28.611765 $li  $L=0.38 $W=0.170000 $SI_W=0.17 $TYPE=10 $DIR=1 $LLX=5.115000 $LLY=0.775000 $URX=5.285000 $URY=1.155000 $lvl=2
RfE107 VSS!:3 VSS!:4 55.328377 $li  $L=0.77475 $W=0.170000 $SI_W=0.17 $TYPE=10 $DIR=1 $LLX=5.115000 $LLY=0.000000 $URX=5.285000 $URY=0.775000 $lvl=2
RfE108 VSS!:4 VSS!:5 44.031998 $li  $L=0.86 $W=0.250000 $SI_W=0.25 $TYPE=10 $DIR=0 $LLX=4.340000 $LLY=-0.124500 $URX=5.200000 $URY=0.125000 $lvl=2
RfE109 VSS!:5 VSS!:6 44.031998 $li  $L=0.86 $W=0.250000 $SI_W=0.25 $TYPE=10 $DIR=0 $LLX=3.480000 $LLY=-0.124500 $URX=4.340000 $URY=0.125000 $lvl=2
RfE110 VSS!:6 VSS!:7 36.876801 $li  $L=0.72025 $W=0.250000 $SI_W=0.25 $TYPE=10 $DIR=0 $LLX=2.760000 $LLY=-0.124500 $URX=3.480000 $URY=0.125000 $lvl=2
RfE111 VSS!:7 VSS!:10 105.971207 $li  $L=2.06975 $W=0.250000 $SI_W=0.25 $TYPE=10 $DIR=0 $LLX=0.690000 $LLY=-0.124500 $URX=2.760000 $URY=0.125000 $lvl=2
RfE112 VSS!:10 VSS!:11 35.340801 $li  $L=0.69025 $W=0.250000 $SI_W=0.25 $TYPE=10 $DIR=0 $LLX=0.000000 $LLY=-0.124500 $URX=0.690000 $URY=0.125000 $lvl=2
RfE113 VSS!:4 VSS!:12 16.345600 $li  $L=0.31925 $W=0.250000 $SI_W=0.25 $TYPE=10 $DIR=0 $LLX=5.200000 $LLY=-0.124500 $URX=5.519000 $URY=0.125000 $lvl=2
RfE114 VSS!:5 VSS!:14 55.328377 $li  $L=0.77475 $W=0.170000 $SI_W=0.17 $TYPE=10 $DIR=1 $LLX=4.255000 $LLY=0.000000 $URX=4.425000 $URY=0.775000 $lvl=2
RfE115 VSS!:14 VSS!:15 28.611765 $li  $L=0.38 $W=0.170000 $SI_W=0.17 $TYPE=10 $DIR=1 $LLX=4.255000 $LLY=0.775000 $URX=4.425000 $URY=1.155000 $lvl=2
RfE116 VSS!:6 VSS!:17 55.328377 $li  $L=0.77475 $W=0.170000 $SI_W=0.17 $TYPE=10 $DIR=1 $LLX=3.395000 $LLY=0.000000 $URX=3.565000 $URY=0.775000 $lvl=2
RfE117 VSS!:17 VSS!:18 28.611765 $li  $L=0.38 $W=0.170000 $SI_W=0.17 $TYPE=10 $DIR=1 $LLX=3.395000 $LLY=0.775000 $URX=3.565000 $URY=1.155000 $lvl=2
RfE118 VSS!:10 VSS!:20 42.528378 $li  $L=0.60475 $W=0.170000 $SI_W=0.17 $TYPE=10 $DIR=1 $LLX=0.605000 $LLY=0.000000 $URX=0.775000 $URY=0.605000 $lvl=2
RfE119 VSS!:20 VSS!:21 16.188236 $li  $L=0.215 $W=0.170000 $SI_W=0.17 $TYPE=10 $DIR=1 $LLX=0.605000 $LLY=0.605000 $URX=0.775000 $URY=0.820000 $lvl=2
RhE120 Mmn5@3:s VSS!:3 7.500000 $licon_diff  $A=0.0578 $VC=0 $SAVL=0 $SAVC=0 $SI_A=0.0578 $COVER_DIR=0 $LLX=0.000000 $LLY=0.000000 $URX=-0.057800 $URY=-2.000000 $lvl=5
RhE121 Mmn5@1:s VSS!:14 7.500000 $licon_diff  $A=0.0578 $VC=0 $SAVL=0 $SAVC=0 $SI_A=0.0578 $COVER_DIR=0 $LLX=0.000000 $LLY=0.000000 $URX=-0.057800 $URY=-2.000000 $lvl=5
RhE122 Mmn5:s VSS!:17 7.500000 $licon_diff  $A=0.0578 $VC=0 $SAVL=0 $SAVC=0 $SI_A=0.0578 $COVER_DIR=0 $LLX=0.000000 $LLY=0.000000 $URX=-0.057800 $URY=-2.000000 $lvl=5
RhE123 Mmn1:s VSS!:20 15.000000 $licon_diff  $L=0.17 $W=0.17 $A=0.0289 $VC=0 $SAVL=0 $SAVC=0 $SI_A=0.0289 $COVER_DIR=0 $LLX=0.000000 $LLY=0.000000 $URX=0.170000 $URY=0.170000 $lvl=5
Rh_3_E124 VSS!:8 VSS!:7 1.363636 $licon_diff  $A=0.3179 $VC=0 $SAVL=0 $SAVC=0 $SI_A=0.3179 $COVER_DIR=0 $LLX=0.000000 $LLY=0.000000 $URX=-0.317900 $URY=-11.000000 $lvl=5
RjE125 VSS!:7 VSS!:23 13.818182 $mcon  $A=0.3179 $VC=0 $SAVL=0 $SAVC=0 $SI_A=0.3179 $COVER_DIR=0 $LLX=0.000000 $LLY=0.000000 $URX=-0.317900 $URY=-11.000000 $lvl=6
RmwE126 Mmn5:b VSS! 0.001000 $FOX $W=1000000 $SI_W=1000000 $TYPE=1 $DIR=0
RmwE127 Mmn5@1:b VSS! 0.001000 $FOX $W=1000000 $SI_W=1000000 $TYPE=1 $DIR=0
RmwE128 Mmn5@2:s Mmn5@1:s 0.001000 $diff $W=1000000 $SI_W=1000000 $TYPE=1 $DIR=0
RmwE129 Mmn5@2:b VSS! 0.001000 $FOX $W=1000000 $SI_W=1000000 $TYPE=1 $DIR=0
RmwE130 Mmn5@3:b VSS! 0.001000 $FOX $W=1000000 $SI_W=1000000 $TYPE=1 $DIR=0
RmwE131 Mmn3:b VSS! 0.001000 $FOX $W=1000000 $SI_W=1000000 $TYPE=1 $DIR=0
RmwE132 Mmn4:b VSS! 0.001000 $FOX $W=1000000 $SI_W=1000000 $TYPE=1 $DIR=0
RmwE133 Mmn1:b VSS! 0.001000 $FOX $W=1000000 $SI_W=1000000 $TYPE=1 $DIR=0
RmwE134 Mmn2:s Mmn5:s 0.001000 $diff $W=1000000 $SI_W=1000000 $TYPE=1 $DIR=0
RmwE135 Mmn2:b VSS! 0.001000 $FOX $W=1000000 $SI_W=1000000 $TYPE=1 $DIR=0
RmwE136 Mmn0:s Mmn1:s 0.001000 $diff $W=1000000 $SI_W=1000000 $TYPE=1 $DIR=0
RmwE137 Mmn0:b VSS! 0.001000 $FOX $W=1000000 $SI_W=1000000 $TYPE=1 $DIR=0
*
*|NET VDD! 3.88655e-15
*|P (VDD! X 0 2.7400 4.1450) // $llx=2.7400 $lly=4.1450 $urx=2.7400 $ury=4.1450 $lvl=1
*|I (Mmp5:s Mmp5 s X 0 3.6195 2.9550) // $llx=3.6195 $lly=2.9550 $urx=3.6195 $ury=2.9550 $lvl=4
*|I (Mmp5:b Mmp5 b X 0 3.6950 2.9550) // $llx=3.6950 $lly=2.9550 $urx=3.6950 $ury=2.9550 $lvl=8
*|I (Mmp5@1:s Mmp5@1 s X 0 4.2005 2.9550) // $llx=4.2005 $lly=2.9550 $urx=4.2005 $ury=2.9550 $lvl=4
*|I (Mmp5@1:b Mmp5@1 b X 0 4.1250 2.9550) // $llx=4.1250 $lly=2.9550 $urx=4.1250 $ury=2.9550 $lvl=8
*|I (Mmp5@2:s Mmp5@2 s X 0 4.4795 2.9550) // $llx=4.4795 $lly=2.9550 $urx=4.4795 $ury=2.9550 $lvl=4
*|I (Mmp5@2:b Mmp5@2 b X 0 4.5550 2.9550) // $llx=4.5550 $lly=2.9550 $urx=4.5550 $ury=2.9550 $lvl=8
*|I (Mmp5@3:s Mmp5@3 s X 0 5.0605 2.9550) // $llx=5.0605 $lly=2.9550 $urx=5.0605 $ury=2.9550 $lvl=4
*|I (Mmp5@3:b Mmp5@3 b X 0 4.9850 2.9550) // $llx=4.9850 $lly=2.9550 $urx=4.9850 $ury=2.9550 $lvl=8
*|I (Mmp4:b Mmp4 b X 0 1.8850 2.9550) // $llx=1.8850 $lly=2.9550 $urx=1.8850 $ury=2.9550 $lvl=8
*|I (Mmp1:s Mmp1 s X 0 0.8295 3.2950) // $llx=0.8295 $lly=3.2950 $urx=0.8295 $ury=3.2950 $lvl=4
*|I (Mmp1:b Mmp1 b X 0 0.9050 3.2950) // $llx=0.9050 $lly=3.2950 $urx=0.9050 $ury=3.2950 $lvl=8
*|I (Mmp0:s Mmp0 s X 0 0.5505 3.2950) // $llx=0.5505 $lly=3.2950 $urx=0.5505 $ury=3.2950 $lvl=4
*|I (Mmp0:b Mmp0 b X 0 0.4750 3.2950) // $llx=0.4750 $lly=3.2950 $urx=0.4750 $ury=3.2950 $lvl=8
*|I (Mmp2:s Mmp2 s X 0 3.3405 2.9550) // $llx=3.3405 $lly=2.9550 $urx=3.3405 $ury=2.9550 $lvl=4
*|I (Mmp2:b Mmp2 b X 0 3.2650 2.9550) // $llx=3.2650 $lly=2.9550 $urx=3.2650 $ury=2.9550 $lvl=8
*|I (Mmp3:b Mmp3 b X 0 2.3150 2.9550) // $llx=2.3150 $lly=2.9550 $urx=2.3150 $ury=2.9550 $lvl=8
*|S (VDD!:1 0.6900 2.9050) // $llx=0.6900 $lly=2.9050 $urx=0.6900 $ury=2.9050 $lvl=2
*|S (VDD!:3 0.6900 3.2950) // $llx=0.6900 $lly=3.2950 $urx=0.6900 $ury=3.2950 $lvl=2
*|S (VDD!:4 0.6900 4.1400) // $llx=0.6900 $lly=4.1400 $urx=0.6900 $ury=4.1400 $lvl=2
*|S (VDD!:5 0.0000 4.1400) // $llx=0.0000 $lly=4.1400 $urx=0.0000 $ury=4.1400 $lvl=2
*|S (VDD!:6 2.7600 4.1400) // $llx=2.7600 $lly=4.1400 $urx=2.7600 $ury=4.1400 $lvl=2
*|S (VDD!:7 2.7600 4.1400) // $llx=2.7600 $lly=4.1400 $urx=2.7600 $ury=4.1400 $lvl=4
*|S (VDD!:9 3.4800 4.1400) // $llx=3.4800 $lly=4.1400 $urx=3.4800 $ury=4.1400 $lvl=2
*|S (VDD!:11 3.4800 2.9550) // $llx=3.4800 $lly=2.9550 $urx=3.4800 $ury=2.9550 $lvl=2
*|S (VDD!:12 3.4800 2.2250) // $llx=3.4800 $lly=2.2250 $urx=3.4800 $ury=2.2250 $lvl=2
*|S (VDD!:13 4.3400 4.1400) // $llx=4.3400 $lly=4.1400 $urx=4.3400 $ury=4.1400 $lvl=2
*|S (VDD!:15 4.3400 2.9550) // $llx=4.3400 $lly=2.9550 $urx=4.3400 $ury=2.9550 $lvl=2
*|S (VDD!:16 4.3400 2.2250) // $llx=4.3400 $lly=2.2250 $urx=4.3400 $ury=2.2250 $lvl=2
*|S (VDD!:17 5.2000 4.1400) // $llx=5.2000 $lly=4.1400 $urx=5.2000 $ury=4.1400 $lvl=2
*|S (VDD!:19 5.2000 2.9550) // $llx=5.2000 $lly=2.9550 $urx=5.2000 $ury=2.9550 $lvl=2
*|S (VDD!:20 5.2000 2.2250) // $llx=5.2000 $lly=2.2250 $urx=5.2000 $ury=2.2250 $lvl=2
*|S (VDD!:21 5.5195 4.1400) // $llx=5.5195 $lly=4.1400 $urx=5.5195 $ury=4.1400 $lvl=2
*|S (VDD!:22 5.5200 4.1400) // $llx=5.5200 $lly=4.1400 $urx=5.5200 $ury=4.1400 $lvl=1
*|S (VDD!:23 2.7600 4.1400) // $llx=2.7600 $lly=4.1400 $urx=2.7600 $ury=4.1400 $lvl=1
*|S (VDD!:24 0.0000 4.1400) // $llx=0.0000 $lly=4.1400 $urx=0.0000 $ury=4.1400 $lvl=1
CD1 Mmp1:s VSS! 2.72147e-18 $lvl=4
CD2 Mmp5@3:s VSS! 2.35104e-18 $lvl=4
CD3 Mmp5@1:s VSS! 1.217e-18 $lvl=4
CD4 Mmp5:s VSS! 8.55198e-19 $lvl=4
CD5 VDD!:23 VSS! 1.92694e-17 $lvl=1
CD6 VDD!:22 VSS! 5.40349e-18 $lvl=1
CD7 VDD!:24 VSS! 6.70226e-18 $lvl=1
CD8 VDD!:19 VSS! 1.01198e-17 $lvl=2
CD9 VDD!:1 VSS! 3.25662e-18 $lvl=2
CD10 VDD!:12 VSS! 1.02076e-17 $lvl=2
CD11 VDD!:16 VSS! 8.43415e-18 $lvl=2
CD12 VDD!:21 VSS! 2.22692e-18 $lvl=2
CD13 VDD!:17 VSS! 3.12595e-18 $lvl=2
CD14 VDD!:13 VSS! 3.53403e-18 $lvl=2
CD15 VDD!:4 VSS! 6.42747e-18 $lvl=2
CD16 VDD!:5 VSS! 3.40147e-18 $lvl=2
CD17 VDD!:7 VSS! 2.83993e-18 $lvl=4
CD18 VDD!:6 VSS! 5.80611e-18 $lvl=2
CD19 VDD! VSS! 1.08723e-17 $lvl=1
CD20 VDD! net131:12 4.89482e-18 $lvl1=1 $lvl2=1
CD21 VDD! net131:9 6.95593e-18 $lvl1=1 $lvl2=1